                                   MODFLOW 6
                U.S. GEOLOGICAL SURVEY MODULAR HYDROLOGIC MODEL
                            VERSION 6.5.0 05/23/2024

   MODFLOW 6 compiled Jun 14 2024 13:48:17 with Intel(R) Fortran Intel(R) 64
  Compiler Classic for applications running on Intel(R) 64, Version 2021.12.0
                             Build 20240222_000000

This software has been approved for release by the U.S. Geological 
Survey (USGS). Although the software has been subjected to rigorous 
review, the USGS reserves the right to update the software as needed 
pursuant to further analysis and review. No warranty, expressed or 
implied, is made by the USGS or the U.S. Government as to the 
functionality of the software and related material nor shall the 
fact of release constitute any such warranty. Furthermore, the 
software is released on condition that neither the USGS nor the U.S. 
Government shall be held liable for any damages resulting from its 
authorized or unauthorized use. Also refer to the USGS Water 
Resources Software User Rights Notice for complete use, copyright, 
and distribution information.


As a work of the United States Government, this USGS product is 
in the public domain within the United States. You can copy, 
modify, distribute, and perform the work, even for commercial 
purposes, all without asking permission. Additionally, USGS 
waives copyright and related rights in the work worldwide 
through CC0 1.0 Universal Public Domain Dedication 
(https://creativecommons.org/publicdomain/zero/1.0/).

The following GNU Lesser General Public License (LGPL) libraries
are used in this USGS product:

    SPARSKIT version 2.0
      ilut, luson, and qsplit 
      (https://www-users.cse.umn.edu/~saad/software/SPARSKIT/)

    RCM - Reverse Cuthill McKee Ordering
      (https://people.math.sc.edu/Burkardt/f_src/rcm/rcm.html)

    BLAS - Basic Linear Algebra Subprograms Level 1
      (https://people.math.sc.edu/Burkardt/f_src/blas1_d/blas1_d.html)

    SPARSEKIT - Sparse Matrix Utility Package
      amux, dperm, dvperm, rperm, and cperm
      (https://people.sc.fsu.edu/~jburkardt/f77_src/sparsekit/sparsekit.html)

The following BSD-3 License libraries are used in this USGS product:

    Modern Fortran DAG Library
      Copyright (c) 2018, Jacob Williams
      All rights reserved.
      (https://github.com/jacobwilliams/daglib)

MODFLOW 6 compiler options: /nologo /O2 /fpp /warn:declarations /warn:unused
/fpe:0 /module:obj_temp\mf6core\x64\Release\
/object:obj_temp\mf6core\x64\Release\
/Fdobj_temp\mf6core\x64\Release\vc170.pdb /libs:static /threads /c
"/Qlocation,link,C:\Program Files\Microsoft Visual
Studio\2022\Community\VC\Tools\MSVC\14.40.33807\bin\HostX64\x64" /Qm64

System command used to initiate simulation:
d:\werkmap\LHM_coupling\.pixi\envs\default\python.exe d:\werkmap\prototype_metaswap\MegaSWAP\run.py

MODFLOW was compiled using uniform precision.

Real Variables
  KIND: 8
  TINY (smallest non-zero value):    2.225074-308
  HUGE (largest value):    1.797693+308
  PRECISION: 15
  SIZE IN BITS: 64

Integer Variables
  KIND: 4
  HUGE (largest value): 2147483647
  SIZE IN BITS: 32

Long Integer Variables
  KIND: 8
  HUGE (largest value): 9223372036854775807
  SIZE IN BITS: 64

Logical Variables
  KIND: 4
  SIZE IN BITS: 32
 

 OPENED mfsim.nam
 FILE TYPE:NAM6               UNIT 1002   STATUS:OLD                 
 FORMAT:FORMATTED              ACCESS:SEQUENTIAL          
 ACTION:READ                

 #modeltype      namefile      modelname

 OPENED model.tdis
 FILE TYPE:TDIS6              UNIT 1003   STATUS:OLD                 
 FORMAT:FORMATTED              ACCESS:SEQUENTIAL          
 ACTION:READ                


 OPENED model.nam
 FILE TYPE:GWF6               UNIT 1004   STATUS:OLD                 
 FORMAT:FORMATTED              ACCESS:SEQUENTIAL          
 ACTION:READ                


 OPENED model.dis
 FILE TYPE:DIS6               UNIT 1005   STATUS:OLD                 
 FORMAT:FORMATTED              ACCESS:SEQUENTIAL          
 ACTION:READ                


 OPENED model.npf
 FILE TYPE:NPF6               UNIT 1006   STATUS:OLD                 
 FORMAT:FORMATTED              ACCESS:SEQUENTIAL          
 ACTION:READ                

 #
 #
 #apply these arrays for the entire simulation
 #
 #icelltype(nodes) is 0:confined, 1:convertible, 4:upstream?
 #
 #K(nodes) horizontal hydraulic conductivity

 OPENED model.sto
 FILE TYPE:STO6      UNIT 1007   STATUS:OLD                 
 FORMAT:FORMATTED              ACCESS:SEQUENTIAL          
 ACTION:READ                


 OPENED model.ic
 FILE TYPE:IC6                UNIT 1008   STATUS:OLD                 
 FORMAT:FORMATTED              ACCESS:SEQUENTIAL          
 ACTION:READ                

 # Basic package file for MODFLOW-USG, generated by el koko.

 OPENED model.oc
 FILE TYPE:OC6       UNIT 1009   STATUS:OLD                 
 FORMAT:FORMATTED              ACCESS:SEQUENTIAL          
 ACTION:READ                


 OPENED model.wel
 FILE TYPE:WEL6               UNIT 1010   STATUS:OLD                 
 FORMAT:FORMATTED              ACCESS:SEQUENTIAL          
 ACTION:READ                


 OPENED model.ghb
 FILE TYPE:GHB6               UNIT 1011   STATUS:OLD                 
 FORMAT:FORMATTED              ACCESS:SEQUENTIAL          
 ACTION:READ                


 OPENED model.rch
 FILE TYPE:RCH6               UNIT 1013   STATUS:OLD                 
 FORMAT:FORMATTED              ACCESS:SEQUENTIAL          
 ACTION:READ                

    ALL SIMULATION MEMORY INFORMATION WILL BE WRITTEN.

 READING SIMULATION OPTIONS
    MAXIMUM NUMBER OF ERRORS THAT WILL BE STORED IS 1000
    MEMORY_PRINT_OPTION SET TO "ALL".
 END OF SIMULATION OPTIONS

 READING SIMULATION TIMING

 TDIS -- TEMPORAL DISCRETIZATION PACKAGE,
 VERSION 1 : 11/13/2014 - INPUT READ FROM MEMPATH: __INPUT__/SIM/TDIS                                
 PROCESSING TDIS OPTIONS
    SIMULATION TIME UNIT IS DAYS
 END OF TDIS OPTIONS
 PROCESSING TDIS DIMENSIONS
  120 STRESS PERIOD(S) IN SIMULATION
 END OF TDIS DIMENSIONS
 PROCESSING TDIS PERIODDATA


 STRESS PERIOD     LENGTH       TIME STEPS     MULTIPLIER FOR DELT
 ----------------------------------------------------------------------------
        1         1.000000          1                    1.000
        2         1.000000          1                    1.000
        3         1.000000          1                    1.000
        4         1.000000          1                    1.000
        5         1.000000          1                    1.000
        6         1.000000          1                    1.000
        7         1.000000          1                    1.000
        8         1.000000          1                    1.000
        9         1.000000          1                    1.000
       10         1.000000          1                    1.000
       11         1.000000          1                    1.000
       12         1.000000          1                    1.000
       13         1.000000          1                    1.000
       14         1.000000          1                    1.000
       15         1.000000          1                    1.000
       16         1.000000          1                    1.000
       17         1.000000          1                    1.000
       18         1.000000          1                    1.000
       19         1.000000          1                    1.000
       20         1.000000          1                    1.000
       21         1.000000          1                    1.000
       22         1.000000          1                    1.000
       23         1.000000          1                    1.000
       24         1.000000          1                    1.000
       25         1.000000          1                    1.000
       26         1.000000          1                    1.000
       27         1.000000          1                    1.000
       28         1.000000          1                    1.000
       29         1.000000          1                    1.000
       30         1.000000          1                    1.000
       31         1.000000          1                    1.000
       32         1.000000          1                    1.000
       33         1.000000          1                    1.000
       34         1.000000          1                    1.000
       35         1.000000          1                    1.000
       36         1.000000          1                    1.000
       37         1.000000          1                    1.000
       38         1.000000          1                    1.000
       39         1.000000          1                    1.000
       40         1.000000          1                    1.000
       41         1.000000          1                    1.000
       42         1.000000          1                    1.000
       43         1.000000          1                    1.000
       44         1.000000          1                    1.000
       45         1.000000          1                    1.000
       46         1.000000          1                    1.000
       47         1.000000          1                    1.000
       48         1.000000          1                    1.000
       49         1.000000          1                    1.000
       50         1.000000          1                    1.000
       51         1.000000          1                    1.000
       52         1.000000          1                    1.000
       53         1.000000          1                    1.000
       54         1.000000          1                    1.000
       55         1.000000          1                    1.000
       56         1.000000          1                    1.000
       57         1.000000          1                    1.000
       58         1.000000          1                    1.000
       59         1.000000          1                    1.000
       60         1.000000          1                    1.000
       61         1.000000          1                    1.000
       62         1.000000          1                    1.000
       63         1.000000          1                    1.000
       64         1.000000          1                    1.000
       65         1.000000          1                    1.000
       66         1.000000          1                    1.000
       67         1.000000          1                    1.000
       68         1.000000          1                    1.000
       69         1.000000          1                    1.000
       70         1.000000          1                    1.000
       71         1.000000          1                    1.000
       72         1.000000          1                    1.000
       73         1.000000          1                    1.000
       74         1.000000          1                    1.000
       75         1.000000          1                    1.000
       76         1.000000          1                    1.000
       77         1.000000          1                    1.000
       78         1.000000          1                    1.000
       79         1.000000          1                    1.000
       80         1.000000          1                    1.000
       81         1.000000          1                    1.000
       82         1.000000          1                    1.000
       83         1.000000          1                    1.000
       84         1.000000          1                    1.000
       85         1.000000          1                    1.000
       86         1.000000          1                    1.000
       87         1.000000          1                    1.000
       88         1.000000          1                    1.000
       89         1.000000          1                    1.000
       90         1.000000          1                    1.000
       91         1.000000          1                    1.000
       92         1.000000          1                    1.000
       93         1.000000          1                    1.000
       94         1.000000          1                    1.000
       95         1.000000          1                    1.000
       96         1.000000          1                    1.000
       97         1.000000          1                    1.000
       98         1.000000          1                    1.000
       99         1.000000          1                    1.000
      100         1.000000          1                    1.000
      101         1.000000          1                    1.000
      102         1.000000          1                    1.000
      103         1.000000          1                    1.000
      104         1.000000          1                    1.000
      105         1.000000          1                    1.000
      106         1.000000          1                    1.000
      107         1.000000          1                    1.000
      108         1.000000          1                    1.000
      109         1.000000          1                    1.000
      110         1.000000          1                    1.000
      111         1.000000          1                    1.000
      112         1.000000          1                    1.000
      113         1.000000          1                    1.000
      114         1.000000          1                    1.000
      115         1.000000          1                    1.000
      116         1.000000          1                    1.000
      117         1.000000          1                    1.000
      118         1.000000          1                    1.000
      119         1.000000          1                    1.000
      120         1.000000          1                    1.000
 END OF TDIS PERIODDATA
 END OF SIMULATION TIMING

 READING SIMULATION MODELS
    GWF6 model 1 will be created
 END OF SIMULATION MODELS

 READING SIMULATION EXCHANGES
 END OF SIMULATION EXCHANGES

 READING SOLUTIONGROUP

 Creating solution: SLN_1           

 OPENED model.ims
 FILE TYPE:IMS   UNIT 1015   STATUS:OLD                 
 FORMAT:FORMATTED              ACCESS:SEQUENTIAL          
 ACTION:READ                

 END OF SOLUTIONGROUP

PROCESSING MODEL CONNECTIONS

 IMS -- ITERATIVE MODEL SOLUTION PACKAGE, VERSION 6, 4/28/2017
         INPUT READ FROM UNIT 1015

 PROCESSING IMS OPTIONS
 COMPLEX OPTION:
 DEFAULT SOLVER INPUT VALUES REFLECT STRONGLY NONLINEAR MODEL
 PSEUDO-TRANSIENT CONTINUATION DISABLED FOR ALL STRESS-PERIOD(S)
 END OF IMS OPTIONS

 PROCESSING IMS NONLINEAR
 END OF IMS NONLINEAR DATA
 **UNDER-RELAXATION WILL BE USED***
 

 PROCESSING LINEAR DATA
 END OF LINEAR DATA
 ***IMS LINEAR SOLVER WILL BE USED***

 IMSLINEAR -- UNSTRUCTURED LINEAR SOLUTION PACKAGE, VERSION 8, 04/28/2017
 An asymmetric matrix will be solved

 OUTER ITERATION CONVERGENCE CRITERION    (DVCLOSE) =    0.100000E-03
 MAXIMUM NUMBER OF OUTER ITERATIONS        (MXITER) = 2000
 SOLVER PRINTOUT INDEX                     (IPRIMS) = 1
 NONLINEAR ITERATION METHOD            (NONLINMETH) = 3
 LINEAR SOLUTION METHOD                   (LINMETH) = 1
 UNDER-RELAXATION WEIGHT REDUCTION FACTOR   (THETA) =    0.700000E+00
 UNDER-RELAXATION WEIGHT INCREASE INCREMENT (KAPPA) =    0.800000E-01
 UNDER-RELAXATION PREVIOUS HISTORY FACTOR   (GAMMA) =    0.500000E-01
 UNDER-RELAXATION MOMENTUM TERM         (AMOMENTUM) =    0.000000E+00
 MAXIMUM NUMBER OF BACKTRACKS            (NUMTRACK) = 20
 BACKTRACKING TOLERANCE FACTOR               (BTOL) =    0.200000E+01
 BACKTRACKING REDUCTION FACTOR             (BREDUC) =    0.200000E+00
 BACKTRACKING RESIDUAL LIMIT              (RES_LIM) =    0.500000E-03

       SOLUTION BY THE BICONJUGATE-GRADIENT STABILIZED METHOD
 ------------------------------------------------------------------
 MAXIMUM OF 2000 CALLS OF SOLUTION ROUTINE
 MAXIMUM OF 100 INTERNAL ITERATIONS PER CALL TO SOLUTION ROUTINE
 LINEAR ACCELERATION METHOD            = BCGS      
 MATRIX PRECONDITIONING TYPE           = INCOMPLETE LUT      
 MATRIX SCALING APPROACH               = NO SCALING          
 MATRIX REORDERING APPROACH            = ORIGINAL ORDERING        
 NUMBER OF ORTHOGONALIZATIONS          = 2
 HEAD CHANGE CRITERION FOR CLOSURE     =    0.10000E-04
 RESIDUAL CHANGE CRITERION FOR CLOSURE =    0.10000E-03
 RESIDUAL CONVERGENCE OPTION           = 3
 RESIDUAL CONVERGENCE NORM             = RELATIVE L2NORM 
 RELAXATION FACTOR                     =    0.00000E+00
 NUMBER OF LEVELS                      =              8
 DROP TOLERANCE                        =    0.10000E-02


 
    Solving:  Stress period:     1    Time step:     1
 
1
 STRESS PERIOD NO. 1, LENGTH =   1.000000    
 ------------------------------------------
 NUMBER OF TIME STEPS = 1
 MULTIPLIER FOR DELT =     1.000
 INITIAL TIME STEP SIZE =   1.000000    

 SLN_1 OUTER ITERATION SUMMARY
 ----------------------------------------------------------------------------------------------------------------------------------------------------------------
                                OUTER      INNER  BACKTRACK  BACKTRACK        INCOMING        OUTGOING                    STEP   MAXIMUM CHANGE MODEL-(CELLID) OR
 OUTER ITERATION STEP       ITERATION  ITERATION       FLAG ITERATIONS        RESIDUAL        RESIDUAL  MAXIMUM CHANGE SUCCESS             MODEL-PACKAGE-(NUMBER)
 ----------------------------------------------------------------------------------------------------------------------------------------------------------------
 Backtracking                       1                     0          0  1.70469244E-02  1.70469244E-02                       *                                   
 Model                              1          1                                                        2.16617228E-03                              1_GWF-(1,1,1)

 DETAILED INFORMATION ON VARIABLES STORED IN THE MEMORY MANAGER
 -----------------------------------------------------------------------------------------------------------------------------------------------------------------------------
 ORIGIN                                             VARIABLE NAME    DATA TYPE             NUMBER OF ITEMS ASSOCIATED VARIABLE                                                
 -----------------------------------------------------------------------------------------------------------------------------------------------------------------------------
 __INPUT__/SIM/NAM                                  PRMEM            STRING LEN=300                      1 --                                                                 
 __INPUT__/SIM/NAM                                  TDIS6            STRING LEN=300                      1 --                                                                 
 __INPUT__/SIM/NAM                                  MTYPE            STRING LEN=300                      1 --                                                                 
 __INPUT__/SIM/NAM                                  MFNAME           STRING LEN=300                      1 --                                                                 
 __INPUT__/SIM/NAM                                  MNAME            STRING LEN=300                      1 --                                                                 
 __INPUT__/SIM/NAM                                  EXGTYPE          STRING LEN=300                      0 --                                                                 
 __INPUT__/SIM/NAM                                  EXGFILE          STRING LEN=300                      0 --                                                                 
 __INPUT__/SIM/NAM                                  EXGMNAMEA        STRING LEN=300                      0 --                                                                 
 __INPUT__/SIM/NAM                                  EXGMNAMEB        STRING LEN=300                      0 --                                                                 
 __INPUT__/SIM/NAM                                  SOLUTIONGROUPNUM INTEGER                             2 --                                                                 
 __INPUT__/SIM/NAM                                  SLNTYPE          STRING LEN=300                      2 --                                                                 
 __INPUT__/SIM/NAM                                  SLNFNAME         STRING LEN=300                      2 --                                                                 
 __INPUT__/SIM/NAM                                  SLNMNAMES        STRING LEN=300                      2 --                                                                 
 __INPUT__/SIM/NAM                                  CONTINUE         INTEGER                             1 --                                                                 
 __INPUT__/SIM/NAM                                  NOCHECK          INTEGER                             1 --                                                                 
 __INPUT__/SIM/NAM                                  MAXERRORS        INTEGER                             1 --                                                                 
 __INPUT__/SIM/NAM                                  PRINT_INPUT      INTEGER                             1 --                                                                 
 __INPUT__/SIM/NAM                                  HPC6_FILENAME    STRING LEN=300                      0 --                                                                 
 __INPUT__/SIM/NAM                                  MXITER           INTEGER                             1 --                                                                 
 __INPUT__/SIM                                      NUMMODELS        INTEGER                             1 --                                                                 
 __INPUT__/SIM                                      NUMEXCHANGES     INTEGER                             1 --                                                                 
 __INPUT__/SIM/TDIS                                 TIME_UNITS       STRING LEN=300                      1 --                                                                 
 __INPUT__/SIM/TDIS                                 NPER             INTEGER                             1 --                                                                 
 __INPUT__/SIM/TDIS                                 PERLEN           DOUBLE                            120 --                                                                 
 __INPUT__/SIM/TDIS                                 NSTP             INTEGER                           120 --                                                                 
 __INPUT__/SIM/TDIS                                 TSMULT           DOUBLE                            120 --                                                                 
 SIM                                                NUMMODELS        INTEGER                             1 --                                                                 
 SIM                                                LOADMASK         INTEGER                             1 --                                                                 
 SIM                                                MODELRANKS       INTEGER                             1 --                                                                 
 __INPUT__/MODEL/NAM                                FTYPE            STRING LEN=300                      8 --                                                                 
 __INPUT__/MODEL/NAM                                FNAME            STRING LEN=300                      8 --                                                                 
 __INPUT__/MODEL/NAM                                PNAME            STRING LEN=300                      8 --                                                                 
 __INPUT__/MODEL                                    PKGTYPES         STRING LEN=7                        8 --                                                                 
 __INPUT__/MODEL                                    PKGNAMES         STRING LEN=16                       8 --                                                                 
 __INPUT__/MODEL                                    MEMPATHS         STRING LEN=50                       8 --                                                                 
 __INPUT__/MODEL                                    INUNITS          INTEGER                             8 --                                                                 
 __INPUT__/MODEL/DIS                                INPUT_FNAME      STRING LEN=300                      1 --                                                                 
 __INPUT__/MODEL/IC                                 INPUT_FNAME      STRING LEN=300                      1 --                                                                 
 __INPUT__/MODEL/NPF                                INPUT_FNAME      STRING LEN=300                      1 --                                                                 
 __INPUT__/MODEL/RCH-1                              INPUT_FNAME      STRING LEN=300                      1 --                                                                 
 __INPUT__/MODEL/GHB-1                              INPUT_FNAME      STRING LEN=300                      1 --                                                                 
 __INPUT__/MODEL/WEL-1                              INPUT_FNAME      STRING LEN=300                      1 --                                                                 
 __INPUT__/MODEL/DIS                                LENGTH_UNITS     STRING LEN=300                      1 --                                                                 
 __INPUT__/MODEL/DIS                                NLAY             INTEGER                             1 --                                                                 
 __INPUT__/MODEL/DIS                                NROW             INTEGER                             1 --                                                                 
 __INPUT__/MODEL/DIS                                NCOL             INTEGER                             1 --                                                                 
 __INPUT__/MODEL                                    MODEL_SHAPE      INTEGER                             3 --                                                                 
 __INPUT__/MODEL                                    NCELLDIM         INTEGER                             1 --                                                                 
 __INPUT__/MODEL                                    DISENUM          INTEGER                             1 --                                                                 
 __INPUT__/MODEL/DIS                                DELR             DOUBLE                              1 --                                                                 
 __INPUT__/MODEL/DIS                                DELC             DOUBLE                              1 --                                                                 
 __INPUT__/MODEL/DIS                                TOP              DOUBLE                              1 --                                                                 
 __INPUT__/MODEL/DIS                                BOTM             DOUBLE                              5 --                                                                 
 __INPUT__/MODEL/NPF                                IPAKCB           INTEGER                             1 --                                                                 
 __INPUT__/MODEL/NPF                                ISAVSAT          INTEGER                             1 --                                                                 
 __INPUT__/MODEL/NPF                                ICELLTYPE        INTEGER                             5 --                                                                 
 __INPUT__/MODEL/NPF                                K                DOUBLE                              5 --                                                                 
 __INPUT__/MODEL/IC                                 STRT             DOUBLE                              5 --                                                                 
 __INPUT__/MODEL/WEL-1                              IPER             INTEGER                             1 --                                                                 
 __INPUT__/MODEL/WEL-1                              IONPER           INTEGER                             1 --                                                                 
 __INPUT__/MODEL/WEL-1                              NAUX             INTEGER                             1 --                                                                 
 __INPUT__/MODEL/WEL-1                              MAXBOUND         INTEGER                             1 --                                                                 
 __INPUT__/MODEL/WEL-1                              NBOUND           INTEGER                             1 --                                                                 
 __INPUT__/MODEL/WEL-1                              NCPL             INTEGER                             1 --                                                                 
 __INPUT__/MODEL/WEL-1                              AUXVAR           DOUBLE                              0 --                                                                 
 __INPUT__/MODEL/WEL-1                              BOUNDNAME        STRING LEN=40                       0 --                                                                 
 __INPUT__/MODEL/WEL-1                              CELLID           INTEGER                             3 --                                                                 
 __INPUT__/MODEL/WEL-1                              Q                DOUBLE                              1 --                                                                 
 __INPUT__/MODEL/WEL-1                              AUXILIARY        STRING LEN=16                       0 --                                                                 
 __INPUT__/MODEL/GHB-1                              IPER             INTEGER                             1 --                                                                 
 __INPUT__/MODEL/GHB-1                              IONPER           INTEGER                             1 --                                                                 
 __INPUT__/MODEL/GHB-1                              IPRPAK           INTEGER                             1 --                                                                 
 __INPUT__/MODEL/GHB-1                              IPRFLOW          INTEGER                             1 --                                                                 
 __INPUT__/MODEL/GHB-1                              IPAKCB           INTEGER                             1 --                                                                 
 __INPUT__/MODEL/GHB-1                              NAUX             INTEGER                             1 --                                                                 
 __INPUT__/MODEL/GHB-1                              MAXBOUND         INTEGER                             1 --                                                                 
 __INPUT__/MODEL/GHB-1                              NBOUND           INTEGER                             1 --                                                                 
 __INPUT__/MODEL/GHB-1                              NCPL             INTEGER                             1 --                                                                 
 __INPUT__/MODEL/GHB-1                              AUXVAR           DOUBLE                              0 --                                                                 
 __INPUT__/MODEL/GHB-1                              BOUNDNAME        STRING LEN=40                       0 --                                                                 
 __INPUT__/MODEL/GHB-1                              CELLID           INTEGER                             3 --                                                                 
 __INPUT__/MODEL/GHB-1                              BHEAD            DOUBLE                              1 --                                                                 
 __INPUT__/MODEL/GHB-1                              COND             DOUBLE                              1 --                                                                 
 __INPUT__/MODEL/GHB-1                              AUXILIARY        STRING LEN=16                       0 --                                                                 
 __INPUT__/MODEL/RCH-1                              IPER             INTEGER                             1 --                                                                 
 __INPUT__/MODEL/RCH-1                              IONPER           INTEGER                             1 --                                                                 
 __INPUT__/MODEL/RCH-1                              NAUX             INTEGER                             1 --                                                                 
 __INPUT__/MODEL/RCH-1                              MAXBOUND         INTEGER                             1 --                                                                 
 __INPUT__/MODEL/RCH-1                              NBOUND           INTEGER                             1 --                                                                 
 __INPUT__/MODEL/RCH-1                              NCPL             INTEGER                             1 --                                                                 
 __INPUT__/MODEL/RCH-1                              AUXVAR           DOUBLE                              0 --                                                                 
 __INPUT__/MODEL/RCH-1                              BOUNDNAME        STRING LEN=40                       0 --                                                                 
 __INPUT__/MODEL/RCH-1                              CELLID           INTEGER                             3 --                                                                 
 __INPUT__/MODEL/RCH-1                              RECHARGE         DOUBLE                              1 --                                                                 
 __INPUT__/MODEL/RCH-1                              AUXILIARY        STRING LEN=16                       0 --                                                                 
 __INPUT__/SIM/NAM                                  EXGMEMPATHS      STRING LEN=50                       0 --                                                                 
 TDIS                                               NPER             INTEGER                             1 --                                                                 
 TDIS                                               ITMUNI           INTEGER                             1 --                                                                 
 TDIS                                               KPER             INTEGER                             1 --                                                                 
 TDIS                                               KSTP             INTEGER                             1 --                                                                 
 TDIS                                               INATS            INTEGER                             1 --                                                                 
 TDIS                                               READNEWDATA      LOGICAL                             1 --                                                                 
 TDIS                                               ENDOFPERIOD      LOGICAL                             1 --                                                                 
 TDIS                                               ENDOFSIMULATION  LOGICAL                             1 --                                                                 
 TDIS                                               DELT             DOUBLE                              1 --                                                                 
 TDIS                                               PERTIM           DOUBLE                              1 --                                                                 
 TDIS                                               TOPERTIM         DOUBLE                              1 --                                                                 
 TDIS                                               TOTIM            DOUBLE                              1 --                                                                 
 TDIS                                               TOTIMC           DOUBLE                              1 --                                                                 
 TDIS                                               DELTSAV          DOUBLE                              1 --                                                                 
 TDIS                                               TOTIMSAV         DOUBLE                              1 --                                                                 
 TDIS                                               PERTIMSAV        DOUBLE                              1 --                                                                 
 TDIS                                               TOTALSIMTIME     DOUBLE                              1 --                                                                 
 TDIS                                               PERLEN           DOUBLE                            120 --                                                                 
 TDIS                                               NSTP             INTEGER                           120 --                                                                 
 TDIS                                               TSMULT           DOUBLE                            120 --                                                                 
 MODEL                                              NAME             STRING LEN=16                       1 --                                                                 
 MODEL                                              MACRONYM         STRING LEN=3                        1 --                                                                 
 MODEL                                              ID               INTEGER                             1 --                                                                 
 MODEL                                              IOUT             INTEGER                             1 --                                                                 
 MODEL                                              INEWTON          INTEGER                             1 --                                                                 
 MODEL                                              IPRPAK           INTEGER                             1 --                                                                 
 MODEL                                              IPRFLOW          INTEGER                             1 --                                                                 
 MODEL                                              IPAKCB           INTEGER                             1 --                                                                 
 MODEL                                              IDSOLN           INTEGER                             1 --                                                                 
 MODEL                                              NEQ              INTEGER                             1 --                                                                 
 MODEL                                              NJA              INTEGER                             1 --                                                                 
 MODEL                                              ICNVG            INTEGER                             1 --                                                                 
 MODEL                                              MOFFSET          INTEGER                             1 --                                                                 
 MODEL                                              INIC             INTEGER                             1 --                                                                 
 MODEL                                              INOC             INTEGER                             1 --                                                                 
 MODEL                                              INNPF            INTEGER                             1 --                                                                 
 MODEL                                              INBUY            INTEGER                             1 --                                                                 
 MODEL                                              INVSC            INTEGER                             1 --                                                                 
 MODEL                                              INSTO            INTEGER                             1 --                                                                 
 MODEL                                              INCSUB           INTEGER                             1 --                                                                 
 MODEL                                              INMVR            INTEGER                             1 --                                                                 
 MODEL                                              INHFB            INTEGER                             1 --                                                                 
 MODEL                                              INGNC            INTEGER                             1 --                                                                 
 MODEL                                              INOBS            INTEGER                             1 --                                                                 
 MODEL                                              ISS              INTEGER                             1 --                                                                 
 MODEL                                              INEWTONUR        INTEGER                             1 --                                                                 
 MODEL/DIS                                          INUNIT           INTEGER                             1 --                                                                 
 MODEL/DIS                                          IOUT             INTEGER                             1 --                                                                 
 MODEL/DIS                                          NODES            INTEGER                             1 --                                                                 
 MODEL/DIS                                          NODESUSER        INTEGER                             1 --                                                                 
 MODEL/DIS                                          NDIM             INTEGER                             1 --                                                                 
 MODEL/DIS                                          ICONDIR          INTEGER                             1 --                                                                 
 MODEL/DIS                                          NOGRB            INTEGER                             1 --                                                                 
 MODEL/DIS                                          XORIGIN          DOUBLE                              1 --                                                                 
 MODEL/DIS                                          YORIGIN          DOUBLE                              1 --                                                                 
 MODEL/DIS                                          ANGROT           DOUBLE                              1 --                                                                 
 MODEL/DIS                                          NJA              INTEGER                             1 --                                                                 
 MODEL/DIS                                          NJAS             INTEGER                             1 --                                                                 
 MODEL/DIS                                          LENUNI           INTEGER                             1 --                                                                 
 MODEL/DIS                                          NLAY             INTEGER                             1 --                                                                 
 MODEL/DIS                                          NROW             INTEGER                             1 --                                                                 
 MODEL/DIS                                          NCOL             INTEGER                             1 --                                                                 
 MODEL/NPF                                          INPUT_FNAME      STRING LEN=300                      1 --                                                                 
 MODEL/NPF                                          PACKAGE_TYPE     STRING LEN=5                        1 --                                                                 
 MODEL/NPF                                          ID               INTEGER                             1 --                                                                 
 MODEL/NPF                                          INUNIT           INTEGER                             1 --                                                                 
 MODEL/NPF                                          IOUT             INTEGER                             1 --                                                                 
 MODEL/NPF                                          INEWTON          INTEGER                             1 --                                                                 
 MODEL/NPF                                          IASYM            INTEGER                             1 --                                                                 
 MODEL/NPF                                          IPRPAK           INTEGER                             1 --                                                                 
 MODEL/NPF                                          IPRFLOW          INTEGER                             1 --                                                                 
 MODEL/NPF                                          IPAKCB           INTEGER                             1 --                                                                 
 MODEL/NPF                                          IONPER           INTEGER                             1 --                                                                 
 MODEL/NPF                                          LASTONPER        INTEGER                             1 --                                                                 
 MODEL/NPF                                          INAME            INTEGER                             1 --                                                                 
 MODEL/NPF                                          IXT3D            INTEGER                             1 --                                                                 
 MODEL/NPF                                          IXT3DRHS         INTEGER                             1 --                                                                 
 MODEL/NPF                                          SATOMEGA         DOUBLE                              1 --                                                                 
 MODEL/NPF                                          HNOFLO           DOUBLE                              1 --                                                                 
 MODEL/NPF                                          HDRY             DOUBLE                              1 --                                                                 
 MODEL/NPF                                          ICELLAVG         INTEGER                             1 --                                                                 
 MODEL/NPF                                          IAVGKEFF         INTEGER                             1 --                                                                 
 MODEL/NPF                                          IK22             INTEGER                             1 --                                                                 
 MODEL/NPF                                          IK33             INTEGER                             1 --                                                                 
 MODEL/NPF                                          IK22OVERK        INTEGER                             1 --                                                                 
 MODEL/NPF                                          IK33OVERK        INTEGER                             1 --                                                                 
 MODEL/NPF                                          IPERCHED         INTEGER                             1 --                                                                 
 MODEL/NPF                                          IVARCV           INTEGER                             1 --                                                                 
 MODEL/NPF                                          IDEWATCV         INTEGER                             1 --                                                                 
 MODEL/NPF                                          ITHICKSTRT       INTEGER                             1 --                                                                 
 MODEL/NPF                                          ICALCSPDIS       INTEGER                             1 --                                                                 
 MODEL/NPF                                          ISAVSPDIS        INTEGER                             1 --                                                                 
 MODEL/NPF                                          ISAVSAT          INTEGER                             1 --                                                                 
 MODEL/NPF                                          IREWET           INTEGER                             1 --                                                                 
 MODEL/NPF                                          WETFCT           DOUBLE                              1 --                                                                 
 MODEL/NPF                                          IWETIT           INTEGER                             1 --                                                                 
 MODEL/NPF                                          IHDWET           INTEGER                             1 --                                                                 
 MODEL/NPF                                          IANGLE1          INTEGER                             1 --                                                                 
 MODEL/NPF                                          IANGLE2          INTEGER                             1 --                                                                 
 MODEL/NPF                                          IANGLE3          INTEGER                             1 --                                                                 
 MODEL/NPF                                          IWETDRY          INTEGER                             1 --                                                                 
 MODEL/NPF                                          NEDGES           INTEGER                             1 --                                                                 
 MODEL/NPF                                          LASTEDGE         INTEGER                             1 --                                                                 
 MODEL/NPF                                          INTVK            INTEGER                             1 --                                                                 
 MODEL/NPF                                          INVSC            INTEGER                             1 --                                                                 
 MODEL/NPF                                          KCHANGEPER       INTEGER                             1 --                                                                 
 MODEL/NPF                                          KCHANGESTP       INTEGER                             1 --                                                                 
 MODEL/XT3D                                         IXT3D            INTEGER                             1 --                                                                 
 MODEL/XT3D                                         NBRMAX           INTEGER                             1 --                                                                 
 MODEL/XT3D                                         INUNIT           INTEGER                             1 --                                                                 
 MODEL/XT3D                                         IOUT             INTEGER                             1 --                                                                 
 MODEL/XT3D                                         INEWTON          INTEGER                             1 --                                                                 
 MODEL/XT3D                                         NUMEXTNBRS       INTEGER                             1 --                                                                 
 MODEL/XT3D                                         NOZEE            LOGICAL                             1 --                                                                 
 MODEL/XT3D                                         VCTHRESH         DOUBLE                              1 --                                                                 
 MODEL/XT3D                                         LAMATSAVED       LOGICAL                             1 --                                                                 
 MODEL/XT3D                                         LDISPERSION      LOGICAL                             1 --                                                                 
 MODEL/BUY                                          INPUT_FNAME      STRING LEN=300                      1 --                                                                 
 MODEL/BUY                                          PACKAGE_TYPE     STRING LEN=5                        1 --                                                                 
 MODEL/BUY                                          ID               INTEGER                             1 --                                                                 
 MODEL/BUY                                          INUNIT           INTEGER                             1 --                                                                 
 MODEL/BUY                                          IOUT             INTEGER                             1 --                                                                 
 MODEL/BUY                                          INEWTON          INTEGER                             1 --                                                                 
 MODEL/BUY                                          IASYM            INTEGER                             1 --                                                                 
 MODEL/BUY                                          IPRPAK           INTEGER                             1 --                                                                 
 MODEL/BUY                                          IPRFLOW          INTEGER                             1 --                                                                 
 MODEL/BUY                                          IPAKCB           INTEGER                             1 --                                                                 
 MODEL/BUY                                          IONPER           INTEGER                             1 --                                                                 
 MODEL/BUY                                          LASTONPER        INTEGER                             1 --                                                                 
 MODEL/BUY                                          IOUTDENSE        INTEGER                             1 --                                                                 
 MODEL/BUY                                          IFORM            INTEGER                             1 --                                                                 
 MODEL/BUY                                          IREADELEV        INTEGER                             1 --                                                                 
 MODEL/BUY                                          IREADCONCBUY     INTEGER                             1 --                                                                 
 MODEL/BUY                                          ICONCSET         INTEGER                             1 --                                                                 
 MODEL/BUY                                          DENSEREF         DOUBLE                              1 --                                                                 
 MODEL/BUY                                          NRHOSPECIES      INTEGER                             1 --                                                                 
 MODEL/VSC                                          INPUT_FNAME      STRING LEN=300                      1 --                                                                 
 MODEL/VSC                                          PACKAGE_TYPE     STRING LEN=5                        1 --                                                                 
 MODEL/VSC                                          ID               INTEGER                             1 --                                                                 
 MODEL/VSC                                          INUNIT           INTEGER                             1 --                                                                 
 MODEL/VSC                                          IOUT             INTEGER                             1 --                                                                 
 MODEL/VSC                                          INEWTON          INTEGER                             1 --                                                                 
 MODEL/VSC                                          IASYM            INTEGER                             1 --                                                                 
 MODEL/VSC                                          IPRPAK           INTEGER                             1 --                                                                 
 MODEL/VSC                                          IPRFLOW          INTEGER                             1 --                                                                 
 MODEL/VSC                                          IPAKCB           INTEGER                             1 --                                                                 
 MODEL/VSC                                          IONPER           INTEGER                             1 --                                                                 
 MODEL/VSC                                          LASTONPER        INTEGER                             1 --                                                                 
 MODEL/VSC                                          THERMIVISC       INTEGER                             1 --                                                                 
 MODEL/VSC                                          IDXTMPR          INTEGER                             1 --                                                                 
 MODEL/VSC                                          IOUTVISC         INTEGER                             1 --                                                                 
 MODEL/VSC                                          IREADELEV        INTEGER                             1 --                                                                 
 MODEL/VSC                                          ICONCSET         INTEGER                             1 --                                                                 
 MODEL/VSC                                          VISCREF          DOUBLE                              1 --                                                                 
 MODEL/VSC                                          A2               DOUBLE                              1 --                                                                 
 MODEL/VSC                                          A3               DOUBLE                              1 --                                                                 
 MODEL/VSC                                          A4               DOUBLE                              1 --                                                                 
 MODEL/VSC                                          NVISCSPECIES     INTEGER                             1 --                                                                 
 MODEL/GNC                                          INPUT_FNAME      STRING LEN=300                      1 --                                                                 
 MODEL/GNC                                          PACKAGE_TYPE     STRING LEN=5                        1 --                                                                 
 MODEL/GNC                                          ID               INTEGER                             1 --                                                                 
 MODEL/GNC                                          INUNIT           INTEGER                             1 --                                                                 
 MODEL/GNC                                          IOUT             INTEGER                             1 --                                                                 
 MODEL/GNC                                          INEWTON          INTEGER                             1 --                                                                 
 MODEL/GNC                                          IASYM            INTEGER                             1 --                                                                 
 MODEL/GNC                                          IPRPAK           INTEGER                             1 --                                                                 
 MODEL/GNC                                          IPRFLOW          INTEGER                             1 --                                                                 
 MODEL/GNC                                          IPAKCB           INTEGER                             1 --                                                                 
 MODEL/GNC                                          IONPER           INTEGER                             1 --                                                                 
 MODEL/GNC                                          LASTONPER        INTEGER                             1 --                                                                 
 MODEL/GNC                                          SMGNC            LOGICAL                             1 --                                                                 
 MODEL/GNC                                          IMPLICIT         LOGICAL                             1 --                                                                 
 MODEL/GNC                                          I2KN             LOGICAL                             1 --                                                                 
 MODEL/GNC                                          NEXG             INTEGER                             1 --                                                                 
 MODEL/GNC                                          NUMJS            INTEGER                             1 --                                                                 
 MODEL/HFB                                          INPUT_FNAME      STRING LEN=300                      1 --                                                                 
 MODEL/HFB                                          PACKAGE_TYPE     STRING LEN=5                        1 --                                                                 
 MODEL/HFB                                          ID               INTEGER                             1 --                                                                 
 MODEL/HFB                                          INUNIT           INTEGER                             1 --                                                                 
 MODEL/HFB                                          IOUT             INTEGER                             1 --                                                                 
 MODEL/HFB                                          INEWTON          INTEGER                             1 --                                                                 
 MODEL/HFB                                          IASYM            INTEGER                             1 --                                                                 
 MODEL/HFB                                          IPRPAK           INTEGER                             1 --                                                                 
 MODEL/HFB                                          IPRFLOW          INTEGER                             1 --                                                                 
 MODEL/HFB                                          IPAKCB           INTEGER                             1 --                                                                 
 MODEL/HFB                                          IONPER           INTEGER                             1 --                                                                 
 MODEL/HFB                                          LASTONPER        INTEGER                             1 --                                                                 
 MODEL/HFB                                          MAXHFB           INTEGER                             1 --                                                                 
 MODEL/HFB                                          NHFB             INTEGER                             1 --                                                                 
 MODEL/HFB                                          IVSC             INTEGER                             1 --                                                                 
 MODEL/STO                                          INPUT_FNAME      STRING LEN=300                      1 --                                                                 
 MODEL/STO                                          PACKAGE_TYPE     STRING LEN=5                        1 --                                                                 
 MODEL/STO                                          ID               INTEGER                             1 --                                                                 
 MODEL/STO                                          INUNIT           INTEGER                             1 --                                                                 
 MODEL/STO                                          IOUT             INTEGER                             1 --                                                                 
 MODEL/STO                                          INEWTON          INTEGER                             1 --                                                                 
 MODEL/STO                                          IASYM            INTEGER                             1 --                                                                 
 MODEL/STO                                          IPRPAK           INTEGER                             1 --                                                                 
 MODEL/STO                                          IPRFLOW          INTEGER                             1 --                                                                 
 MODEL/STO                                          IPAKCB           INTEGER                             1 --                                                                 
 MODEL/STO                                          IONPER           INTEGER                             1 --                                                                 
 MODEL/STO                                          LASTONPER        INTEGER                             1 --                                                                 
 MODEL/STO                                          ISTOR_COEF       INTEGER                             1 --                                                                 
 MODEL/STO                                          ICONF_SS         INTEGER                             1 --                                                                 
 MODEL/STO                                          IORIG_SS         INTEGER                             1 --                                                                 
 MODEL/STO                                          IUSESY           INTEGER                             1 --                                                                 
 MODEL/STO                                          SATOMEGA         DOUBLE                              1 --                                                                 
 MODEL/STO                                          INTEGRATECHANGES INTEGER                             1 --                                                                 
 MODEL/STO                                          INTVS            INTEGER                             1 --                                                                 
 MODEL/CSUB                                         INPUT_FNAME      STRING LEN=300                      1 --                                                                 
 MODEL/CSUB                                         PACKAGE_TYPE     STRING LEN=5                        1 --                                                                 
 MODEL/CSUB                                         ID               INTEGER                             1 --                                                                 
 MODEL/CSUB                                         INUNIT           INTEGER                             1 --                                                                 
 MODEL/CSUB                                         IOUT             INTEGER                             1 --                                                                 
 MODEL/CSUB                                         INEWTON          INTEGER                             1 --                                                                 
 MODEL/CSUB                                         IASYM            INTEGER                             1 --                                                                 
 MODEL/CSUB                                         IPRPAK           INTEGER                             1 --                                                                 
 MODEL/CSUB                                         IPRFLOW          INTEGER                             1 --                                                                 
 MODEL/CSUB                                         IPAKCB           INTEGER                             1 --                                                                 
 MODEL/CSUB                                         IONPER           INTEGER                             1 --                                                                 
 MODEL/CSUB                                         LASTONPER        INTEGER                             1 --                                                                 
 MODEL/CSUB                                         LISTLABEL        STRING LEN=500                      1 --                                                                 
 MODEL/CSUB                                         STONAME          STRING LEN=50                       1 --                                                                 
 MODEL/CSUB                                         ISTOUNIT         INTEGER                             1 --                                                                 
 MODEL/CSUB                                         INOBSPKG         INTEGER                             1 --                                                                 
 MODEL/CSUB                                         NINTERBEDS       INTEGER                             1 --                                                                 
 MODEL/CSUB                                         MAXSIG0          INTEGER                             1 --                                                                 
 MODEL/CSUB                                         NBOUND           INTEGER                             1 --                                                                 
 MODEL/CSUB                                         ISCLOC           INTEGER                             1 --                                                                 
 MODEL/CSUB                                         IAUXMULTCOL      INTEGER                             1 --                                                                 
 MODEL/CSUB                                         NDELAYCELLS      INTEGER                             1 --                                                                 
 MODEL/CSUB                                         NDELAYBEDS       INTEGER                             1 --                                                                 
 MODEL/CSUB                                         INITIALIZED      INTEGER                             1 --                                                                 
 MODEL/CSUB                                         IESLAG           INTEGER                             1 --                                                                 
 MODEL/CSUB                                         IPCH             INTEGER                             1 --                                                                 
 MODEL/CSUB                                         LHEAD_BASED      LOGICAL                             1 --                                                                 
 MODEL/CSUB                                         IUPDATESTRESS    INTEGER                             1 --                                                                 
 MODEL/CSUB                                         ISPECIFIED_PCS   INTEGER                             1 --                                                                 
 MODEL/CSUB                                         ISPECIFIED_DBH   INTEGER                             1 --                                                                 
 MODEL/CSUB                                         INAMEDBOUND      INTEGER                             1 --                                                                 
 MODEL/CSUB                                         ICONVCHK         INTEGER                             1 --                                                                 
 MODEL/CSUB                                         NAUX             INTEGER                             1 --                                                                 
 MODEL/CSUB                                         ISTORAGEC        INTEGER                             1 --                                                                 
 MODEL/CSUB                                         ISTRAINIB        INTEGER                             1 --                                                                 
 MODEL/CSUB                                         ISTRAINSK        INTEGER                             1 --                                                                 
 MODEL/CSUB                                         IOUTCOMP         INTEGER                             1 --                                                                 
 MODEL/CSUB                                         IOUTCOMPI        INTEGER                             1 --                                                                 
 MODEL/CSUB                                         IOUTCOMPE        INTEGER                             1 --                                                                 
 MODEL/CSUB                                         IOUTCOMPIB       INTEGER                             1 --                                                                 
 MODEL/CSUB                                         IOUTCOMPS        INTEGER                             1 --                                                                 
 MODEL/CSUB                                         IOUTZDISP        INTEGER                             1 --                                                                 
 MODEL/CSUB                                         IPAKCSV          INTEGER                             1 --                                                                 
 MODEL/CSUB                                         IUPDATEMATPROP   INTEGER                             1 --                                                                 
 MODEL/CSUB                                         EPSILON          DOUBLE                              1 --                                                                 
 MODEL/CSUB                                         CC_CRIT          DOUBLE                              1 --                                                                 
[...]
 MODEL                                              IBOUND           INTEGER                             5 SLN_1/IBOUND                                                       
 SLN_1                                              NROW             INTEGER                             1 --                                                                 
 SLN_1                                              NCOL             INTEGER                             1 --                                                                 
 SLN_1                                              NJA              INTEGER                             1 --                                                                 
 SLN_1                                              IA               INTEGER                             6 --                                                                 
 SLN_1                                              JA               INTEGER                            13 --                                                                 
 SLN_1                                              AMAT             DOUBLE                             13 --                                                                 
 MODEL/IC                                           STRT             DOUBLE                              5 --                                                                 
 MODEL/STO                                          ICONVERT         INTEGER                             5 --                                                                 
 MODEL/STO                                          SS               DOUBLE                              5 --                                                                 
 MODEL/STO                                          SY               DOUBLE                              5 --                                                                 
 MODEL/STO                                          STRGSS           DOUBLE                              5 --                                                                 
 MODEL/STO                                          STRGSY           DOUBLE                              5 --                                                                 
 MODEL/WEL-1                                        NODELIST         INTEGER                             1 --                                                                 
 MODEL/WEL-1                                        NOUPDATEAUXVAR   INTEGER                             0 --                                                                 
 MODEL/WEL-1                                        BOUND            DOUBLE                              0 --                                                                 
 MODEL/WEL-1                                        CONDINPUT        DOUBLE                              0 --                                                                 
 MODEL/WEL-1                                        HCOF             DOUBLE                              1 --                                                                 
 MODEL/WEL-1                                        RHS              DOUBLE                              1 --                                                                 
 MODEL/WEL-1                                        SIMVALS          DOUBLE                              1 --                                                                 
 MODEL/WEL-1                                        SIMTOMVR         DOUBLE                              0 --                                                                 
 MODEL/WEL-1                                        AUXVAR           DOUBLE                              0 --                                                                 
 MODEL/WEL-1                                        BOUNDNAME        STRING LEN=40                       0 --                                                                 
 MODEL/WEL-1                                        BOUNDNAME_CST    STRING LEN=40                       0 --                                                                 
 MODEL/WEL-1                                        CELLID           INTEGER                             3 __INPUT__/MODEL/WEL-1/CELLID                                       
 MODEL/WEL-1                                        BOUNDNAME_IDM    STRING LEN=40                       0 __INPUT__/MODEL/WEL-1/BOUNDNAME                                    
 MODEL/WEL-1                                        AUXVAR_IDM       DOUBLE                              0 __INPUT__/MODEL/WEL-1/AUXVAR                                       
 MODEL/WEL-1                                        Q                DOUBLE                              1 __INPUT__/MODEL/WEL-1/Q                                            
 MODEL/GHB-1                                        NODELIST         INTEGER                             1 --                                                                 
 MODEL/GHB-1                                        NOUPDATEAUXVAR   INTEGER                             0 --                                                                 
 MODEL/GHB-1                                        BOUND            DOUBLE                              0 --                                                                 
 MODEL/GHB-1                                        CONDINPUT        DOUBLE                              0 --                                                                 
 MODEL/GHB-1                                        HCOF             DOUBLE                              1 --                                                                 
 MODEL/GHB-1                                        RHS              DOUBLE                              1 --                                                                 
 MODEL/GHB-1                                        SIMVALS          DOUBLE                              1 --                                                                 
 MODEL/GHB-1                                        SIMTOMVR         DOUBLE                              0 --                                                                 
 MODEL/GHB-1                                        AUXVAR           DOUBLE                              0 --                                                                 
 MODEL/GHB-1                                        BOUNDNAME        STRING LEN=40                       0 --                                                                 
 MODEL/GHB-1                                        BOUNDNAME_CST    STRING LEN=40                       0 --                                                                 
 MODEL/GHB-1                                        CELLID           INTEGER                             3 __INPUT__/MODEL/GHB-1/CELLID                                       
 MODEL/GHB-1                                        BOUNDNAME_IDM    STRING LEN=40                       0 __INPUT__/MODEL/GHB-1/BOUNDNAME                                    
 MODEL/GHB-1                                        AUXVAR_IDM       DOUBLE                              0 __INPUT__/MODEL/GHB-1/AUXVAR                                       
 MODEL/GHB-1                                        BHEAD            DOUBLE                              1 __INPUT__/MODEL/GHB-1/BHEAD                                        
 MODEL/GHB-1                                        COND             DOUBLE                              1 __INPUT__/MODEL/GHB-1/COND                                         
 MODEL/RCH-1                                        NODELIST         INTEGER                             1 --                                                                 
 MODEL/RCH-1                                        NOUPDATEAUXVAR   INTEGER                             0 --                                                                 
 MODEL/RCH-1                                        BOUND            DOUBLE                              0 --                                                                 
 MODEL/RCH-1                                        CONDINPUT        DOUBLE                              0 --                                                                 
 MODEL/RCH-1                                        HCOF             DOUBLE                              1 --                                                                 
 MODEL/RCH-1                                        RHS              DOUBLE                              1 --                                                                 
 MODEL/RCH-1                                        SIMVALS          DOUBLE                              1 --                                                                 
 MODEL/RCH-1                                        SIMTOMVR         DOUBLE                              0 --                                                                 
 MODEL/RCH-1                                        AUXVAR           DOUBLE                              0 --                                                                 
 MODEL/RCH-1                                        BOUNDNAME        STRING LEN=40                       0 --                                                                 
 MODEL/RCH-1                                        BOUNDNAME_CST    STRING LEN=40                       0 --                                                                 
 MODEL/RCH-1                                        CELLID           INTEGER                             3 __INPUT__/MODEL/RCH-1/CELLID                                       
 MODEL/RCH-1                                        BOUNDNAME_IDM    STRING LEN=40                       0 __INPUT__/MODEL/RCH-1/BOUNDNAME                                    
 MODEL/RCH-1                                        AUXVAR_IDM       DOUBLE                              0 __INPUT__/MODEL/RCH-1/AUXVAR                                       
 MODEL/RCH-1                                        RECHARGE         DOUBLE                              1 __INPUT__/MODEL/RCH-1/RECHARGE                                     
 SLN_1/IMSLINEAR                                    DVCLOSE          DOUBLE                              1 --                                                                 
 SLN_1/IMSLINEAR                                    RCLOSE           DOUBLE                              1 --                                                                 
 SLN_1/IMSLINEAR                                    ICNVGOPT         INTEGER                             1 --                                                                 
 SLN_1/IMSLINEAR                                    ITER1            INTEGER                             1 --                                                                 
 SLN_1/IMSLINEAR                                    ILINMETH         INTEGER                             1 --                                                                 
 SLN_1/IMSLINEAR                                    ISCL             INTEGER                             1 --                                                                 
 SLN_1/IMSLINEAR                                    IORD             INTEGER                             1 --                                                                 
 SLN_1/IMSLINEAR                                    NORTH            INTEGER                             1 --                                                                 
 SLN_1/IMSLINEAR                                    RELAX            DOUBLE                              1 --                                                                 
 SLN_1/IMSLINEAR                                    LEVEL            INTEGER                             1 --                                                                 
 SLN_1/IMSLINEAR                                    DROPTOL          DOUBLE                              1 --                                                                 
 SLN_1/IMSLINEAR                                    IDFPARAM         INTEGER                             1 --                                                                 
 SLN_1/IMSLINEAR                                    NJA              INTEGER                             1 --                                                                 
 SLN_1/IMSLINEAR                                    IOUT             INTEGER                             1 --                                                                 
 SLN_1/IMSLINEAR                                    IPC              INTEGER                             1 --                                                                 
 SLN_1/IMSLINEAR                                    IACPC            INTEGER                             1 --                                                                 
 SLN_1/IMSLINEAR                                    NITERC           INTEGER                             1 --                                                                 
 SLN_1/IMSLINEAR                                    NIABCGS          INTEGER                             1 --                                                                 
 SLN_1/IMSLINEAR                                    NIAPC            INTEGER                             1 --                                                                 
 SLN_1/IMSLINEAR                                    NJAPC            INTEGER                             1 --                                                                 
 SLN_1/IMSLINEAR                                    EPFACT           DOUBLE                              1 --                                                                 
 SLN_1/IMSLINEAR                                    L2NORM0          DOUBLE                              1 --                                                                 
 SLN_1/IMSLINEAR                                    NJLU             INTEGER                             1 --                                                                 
 SLN_1/IMSLINEAR                                    NJW              INTEGER                             1 --                                                                 
 SLN_1/IMSLINEAR                                    NWLU             INTEGER                             1 --                                                                 
 SLN_1/IMSLINEAR                                    DSCALE           DOUBLE                              1 --                                                                 
 SLN_1/IMSLINEAR                                    DSCALE2          DOUBLE                              1 --                                                                 
 SLN_1/IMSLINEAR                                    IAPC             INTEGER                             6 --                                                                 
 SLN_1/IMSLINEAR                                    JAPC             INTEGER                            85 --                                                                 
 SLN_1/IMSLINEAR                                    APC              DOUBLE                             85 --                                                                 
 SLN_1/IMSLINEAR                                    IW               INTEGER                             5 --                                                                 
 SLN_1/IMSLINEAR                                    W                DOUBLE                              5 --                                                                 
 SLN_1/IMSLINEAR                                    JLU              INTEGER                            85 --                                                                 
 SLN_1/IMSLINEAR                                    JW               INTEGER                            10 --                                                                 
 SLN_1/IMSLINEAR                                    WLU              DOUBLE                              6 --                                                                 
 SLN_1/IMSLINEAR                                    LORDER           INTEGER                             1 --                                                                 
 SLN_1/IMSLINEAR                                    IORDER           INTEGER                             1 --                                                                 
 SLN_1/IMSLINEAR                                    IARO             INTEGER                             2 --                                                                 
 SLN_1/IMSLINEAR                                    JARO             INTEGER                             1 --                                                                 
 SLN_1/IMSLINEAR                                    ARO              DOUBLE                              1 --                                                                 
 SLN_1/IMSLINEAR                                    ID               INTEGER                             5 --                                                                 
 SLN_1/IMSLINEAR                                    D                DOUBLE                              5 --                                                                 
 SLN_1/IMSLINEAR                                    P                DOUBLE                              5 --                                                                 
 SLN_1/IMSLINEAR                                    Q                DOUBLE                              5 --                                                                 
 SLN_1/IMSLINEAR                                    Z                DOUBLE                              5 --                                                                 
 SLN_1/IMSLINEAR                                    T                DOUBLE                              5 --                                                                 
 SLN_1/IMSLINEAR                                    V                DOUBLE                              5 --                                                                 
 SLN_1/IMSLINEAR                                    DHAT             DOUBLE                              5 --                                                                 
 SLN_1/IMSLINEAR                                    PHAT             DOUBLE                              5 --                                                                 
 SLN_1/IMSLINEAR                                    QHAT             DOUBLE                              5 --                                                                 
 -----------------------------------------------------------------------------------------------------------------------------------------------------------------------------



 MEMORY MANAGER TOTAL STORAGE BY DATA TYPE, IN KILOBYTES
 -------------------------------
                    ALLOCATED   
 DATA TYPE           MEMORY     
 -------------------------------
 Character        8.7860000     
 Logical          4.40000000E-02
 Integer          28.216000     
 Real             22.648000     
 -------------------------------
 Total            59.694000     
 Virtual          0.0000000     
 -------------------------------


 
 Run end date and time (yyyy/mm/dd hh:mm:ss): 2025/01/28 16:05:48
 Elapsed run time:  0.899 Seconds
 Normal termination of simulation.
