                                   MODFLOW 6
                U.S. GEOLOGICAL SURVEY MODULAR HYDROLOGIC MODEL
                            VERSION 6.5.0 05/23/2024

   MODFLOW 6 compiled Jun 14 2024 13:48:17 with Intel(R) Fortran Intel(R) 64
  Compiler Classic for applications running on Intel(R) 64, Version 2021.12.0
                             Build 20240222_000000

This software has been approved for release by the U.S. Geological 
Survey (USGS). Although the software has been subjected to rigorous 
review, the USGS reserves the right to update the software as needed 
pursuant to further analysis and review. No warranty, expressed or 
implied, is made by the USGS or the U.S. Government as to the 
functionality of the software and related material nor shall the 
fact of release constitute any such warranty. Furthermore, the 
software is released on condition that neither the USGS nor the U.S. 
Government shall be held liable for any damages resulting from its 
authorized or unauthorized use. Also refer to the USGS Water 
Resources Software User Rights Notice for complete use, copyright, 
and distribution information.


As a work of the United States Government, this USGS product is 
in the public domain within the United States. You can copy, 
modify, distribute, and perform the work, even for commercial 
purposes, all without asking permission. Additionally, USGS 
waives copyright and related rights in the work worldwide 
through CC0 1.0 Universal Public Domain Dedication 
(https://creativecommons.org/publicdomain/zero/1.0/).

The following GNU Lesser General Public License (LGPL) libraries
are used in this USGS product:

    SPARSKIT version 2.0
      ilut, luson, and qsplit 
      (https://www-users.cse.umn.edu/~saad/software/SPARSKIT/)

    RCM - Reverse Cuthill McKee Ordering
      (https://people.math.sc.edu/Burkardt/f_src/rcm/rcm.html)

    BLAS - Basic Linear Algebra Subprograms Level 1
      (https://people.math.sc.edu/Burkardt/f_src/blas1_d/blas1_d.html)

    SPARSEKIT - Sparse Matrix Utility Package
      amux, dperm, dvperm, rperm, and cperm
      (https://people.sc.fsu.edu/~jburkardt/f77_src/sparsekit/sparsekit.html)

The following BSD-3 License libraries are used in this USGS product:

    Modern Fortran DAG Library
      Copyright (c) 2018, Jacob Williams
      All rights reserved.
      (https://github.com/jacobwilliams/daglib)

MODFLOW 6 compiler options: /nologo /O2 /fpp /warn:declarations /warn:unused
/fpe:0 /module:obj_temp\mf6core\x64\Release\
/object:obj_temp\mf6core\x64\Release\
/Fdobj_temp\mf6core\x64\Release\vc170.pdb /libs:static /threads /c
"/Qlocation,link,C:\Program Files\Microsoft Visual
Studio\2022\Community\VC\Tools\MSVC\14.40.33807\bin\HostX64\x64" /Qm64

System command used to initiate simulation:
d:\werkmap\LHM_coupling\.pixi\envs\default\python.exe d:\werkmap\prototype_metaswap\MegaSWAP\run.py

MODFLOW was compiled using uniform precision.

Real Variables
  KIND: 8
  TINY (smallest non-zero value):    2.225074-308
  HUGE (largest value):    1.797693+308
  PRECISION: 15
  SIZE IN BITS: 64

Integer Variables
  KIND: 4
  HUGE (largest value): 2147483647
  SIZE IN BITS: 32

Long Integer Variables
  KIND: 8
  HUGE (largest value): 9223372036854775807
  SIZE IN BITS: 64

Logical Variables
  KIND: 4
  SIZE IN BITS: 32
 

 OPENED mfsim.nam
 FILE TYPE:NAM6               UNIT 1002   STATUS:OLD                 
 FORMAT:FORMATTED              ACCESS:SEQUENTIAL          
 ACTION:READ                

 #modeltype      namefile      modelname

 OPENED model.tdis
 FILE TYPE:TDIS6              UNIT 1003   STATUS:OLD                 
 FORMAT:FORMATTED              ACCESS:SEQUENTIAL          
 ACTION:READ                


 OPENED model.nam
 FILE TYPE:GWF6               UNIT 1004   STATUS:OLD                 
 FORMAT:FORMATTED              ACCESS:SEQUENTIAL          
 ACTION:READ                


 OPENED model.dis
 FILE TYPE:DIS6               UNIT 1005   STATUS:OLD                 
 FORMAT:FORMATTED              ACCESS:SEQUENTIAL          
 ACTION:READ                


 OPENED model.npf
 FILE TYPE:NPF6               UNIT 1006   STATUS:OLD                 
 FORMAT:FORMATTED              ACCESS:SEQUENTIAL          
 ACTION:READ                

 #
 #
 #apply these arrays for the entire simulation
 #
 #icelltype(nodes) is 0:confined, 1:convertible, 4:upstream?
 #
 #K(nodes) horizontal hydraulic conductivity

 OPENED model.sto
 FILE TYPE:STO6      UNIT 1007   STATUS:OLD                 
 FORMAT:FORMATTED              ACCESS:SEQUENTIAL          
 ACTION:READ                


 OPENED model.ic
 FILE TYPE:IC6                UNIT 1008   STATUS:OLD                 
 FORMAT:FORMATTED              ACCESS:SEQUENTIAL          
 ACTION:READ                

 # Basic package file for MODFLOW-USG, generated by el koko.

 OPENED model.oc
 FILE TYPE:OC6       UNIT 1009   STATUS:OLD                 
 FORMAT:FORMATTED              ACCESS:SEQUENTIAL          
 ACTION:READ                


 OPENED model.wel
 FILE TYPE:WEL6               UNIT 1010   STATUS:OLD                 
 FORMAT:FORMATTED              ACCESS:SEQUENTIAL          
 ACTION:READ                


 OPENED model.ghb
 FILE TYPE:GHB6               UNIT 1011   STATUS:OLD                 
 FORMAT:FORMATTED              ACCESS:SEQUENTIAL          
 ACTION:READ                


 OPENED model.rch
 FILE TYPE:RCH6               UNIT 1013   STATUS:OLD                 
 FORMAT:FORMATTED              ACCESS:SEQUENTIAL          
 ACTION:READ                

    ALL SIMULATION MEMORY INFORMATION WILL BE WRITTEN.

 READING SIMULATION OPTIONS
    MAXIMUM NUMBER OF ERRORS THAT WILL BE STORED IS 1000
    MEMORY_PRINT_OPTION SET TO "ALL".
 END OF SIMULATION OPTIONS

 READING SIMULATION TIMING

 TDIS -- TEMPORAL DISCRETIZATION PACKAGE,
 VERSION 1 : 11/13/2014 - INPUT READ FROM MEMPATH: __INPUT__/SIM/TDIS                                
 PROCESSING TDIS OPTIONS
    SIMULATION TIME UNIT IS DAYS
 END OF TDIS OPTIONS
 PROCESSING TDIS DIMENSIONS
  120 STRESS PERIOD(S) IN SIMULATION
 END OF TDIS DIMENSIONS
 PROCESSING TDIS PERIODDATA


 STRESS PERIOD     LENGTH       TIME STEPS     MULTIPLIER FOR DELT
 ----------------------------------------------------------------------------
        1         1.000000          1                    1.000
        2         1.000000          1                    1.000
        3         1.000000          1                    1.000
        4         1.000000          1                    1.000
        5         1.000000          1                    1.000
        6         1.000000          1                    1.000
        7         1.000000          1                    1.000
        8         1.000000          1                    1.000
        9         1.000000          1                    1.000
       10         1.000000          1                    1.000
       11         1.000000          1                    1.000
       12         1.000000          1                    1.000
       13         1.000000          1                    1.000
       14         1.000000          1                    1.000
       15         1.000000          1                    1.000
       16         1.000000          1                    1.000
       17         1.000000          1                    1.000
       18         1.000000          1                    1.000
       19         1.000000          1                    1.000
       20         1.000000          1                    1.000
       21         1.000000          1                    1.000
       22         1.000000          1                    1.000
       23         1.000000          1                    1.000
       24         1.000000          1                    1.000
       25         1.000000          1                    1.000
       26         1.000000          1                    1.000
       27         1.000000          1                    1.000
       28         1.000000          1                    1.000
       29         1.000000          1                    1.000
       30         1.000000          1                    1.000
       31         1.000000          1                    1.000
       32         1.000000          1                    1.000
       33         1.000000          1                    1.000
       34         1.000000          1                    1.000
       35         1.000000          1                    1.000
       36         1.000000          1                    1.000
       37         1.000000          1                    1.000
       38         1.000000          1                    1.000
       39         1.000000          1                    1.000
       40         1.000000          1                    1.000
       41         1.000000          1                    1.000
       42         1.000000          1                    1.000
       43         1.000000          1                    1.000
       44         1.000000          1                    1.000
       45         1.000000          1                    1.000
       46         1.000000          1                    1.000
       47         1.000000          1                    1.000
       48         1.000000          1                    1.000
       49         1.000000          1                    1.000
       50         1.000000          1                    1.000
       51         1.000000          1                    1.000
       52         1.000000          1                    1.000
       53         1.000000          1                    1.000
       54         1.000000          1                    1.000
       55         1.000000          1                    1.000
       56         1.000000          1                    1.000
       57         1.000000          1                    1.000
       58         1.000000          1                    1.000
       59         1.000000          1                    1.000
       60         1.000000          1                    1.000
       61         1.000000          1                    1.000
       62         1.000000          1                    1.000
       63         1.000000          1                    1.000
       64         1.000000          1                    1.000
       65         1.000000          1                    1.000
       66         1.000000          1                    1.000
       67         1.000000          1                    1.000
       68         1.000000          1                    1.000
       69         1.000000          1                    1.000
       70         1.000000          1                    1.000
       71         1.000000          1                    1.000
       72         1.000000          1                    1.000
       73         1.000000          1                    1.000
       74         1.000000          1                    1.000
       75         1.000000          1                    1.000
       76         1.000000          1                    1.000
       77         1.000000          1                    1.000
       78         1.000000          1                    1.000
       79         1.000000          1                    1.000
       80         1.000000          1                    1.000
       81         1.000000          1                    1.000
       82         1.000000          1                    1.000
       83         1.000000          1                    1.000
       84         1.000000          1                    1.000
       85         1.000000          1                    1.000
       86         1.000000          1                    1.000
       87         1.000000          1                    1.000
       88         1.000000          1                    1.000
       89         1.000000          1                    1.000
       90         1.000000          1                    1.000
       91         1.000000          1                    1.000
       92         1.000000          1                    1.000
       93         1.000000          1                    1.000
       94         1.000000          1                    1.000
       95         1.000000          1                    1.000
       96         1.000000          1                    1.000
       97         1.000000          1                    1.000
       98         1.000000          1                    1.000
       99         1.000000          1                    1.000
      100         1.000000          1                    1.000
      101         1.000000          1                    1.000
      102         1.000000          1                    1.000
      103         1.000000          1                    1.000
      104         1.000000          1                    1.000
      105         1.000000          1                    1.000
      106         1.000000          1                    1.000
      107         1.000000          1                    1.000
      108         1.000000          1                    1.000
      109         1.000000          1                    1.000
      110         1.000000          1                    1.000
      111         1.000000          1                    1.000
      112         1.000000          1                    1.000
      113         1.000000          1                    1.000
      114         1.000000          1                    1.000
      115         1.000000          1                    1.000
      116         1.000000          1                    1.000
      117         1.000000          1                    1.000
      118         1.000000          1                    1.000
      119         1.000000          1                    1.000
      120         1.000000          1                    1.000
 END OF TDIS PERIODDATA
 END OF SIMULATION TIMING

 READING SIMULATION MODELS
    GWF6 model 1 will be created
 END OF SIMULATION MODELS

 READING SIMULATION EXCHANGES
 END OF SIMULATION EXCHANGES

 READING SOLUTIONGROUP

 Creating solution: SLN_1           

 OPENED model.ims
 FILE TYPE:IMS   UNIT 1015   STATUS:OLD                 
 FORMAT:FORMATTED              ACCESS:SEQUENTIAL          
 ACTION:READ                

 END OF SOLUTIONGROUP

PROCESSING MODEL CONNECTIONS

 IMS -- ITERATIVE MODEL SOLUTION PACKAGE, VERSION 6, 4/28/2017
         INPUT READ FROM UNIT 1015

 PROCESSING IMS OPTIONS
 COMPLEX OPTION:
 DEFAULT SOLVER INPUT VALUES REFLECT STRONGLY NONLINEAR MODEL
 PSEUDO-TRANSIENT CONTINUATION DISABLED FOR ALL STRESS-PERIOD(S)
 END OF IMS OPTIONS

 PROCESSING IMS NONLINEAR
 END OF IMS NONLINEAR DATA
 **UNDER-RELAXATION WILL BE USED***
 

 PROCESSING LINEAR DATA
 END OF LINEAR DATA
 ***IMS LINEAR SOLVER WILL BE USED***

 IMSLINEAR -- UNSTRUCTURED LINEAR SOLUTION PACKAGE, VERSION 8, 04/28/2017
 An asymmetric matrix will be solved

 OUTER ITERATION CONVERGENCE CRITERION    (DVCLOSE) =    0.100000E-03
 MAXIMUM NUMBER OF OUTER ITERATIONS        (MXITER) = 2000
 SOLVER PRINTOUT INDEX                     (IPRIMS) = 1
 NONLINEAR ITERATION METHOD            (NONLINMETH) = 3
 LINEAR SOLUTION METHOD                   (LINMETH) = 1
 UNDER-RELAXATION WEIGHT REDUCTION FACTOR   (THETA) =    0.700000E+00
 UNDER-RELAXATION WEIGHT INCREASE INCREMENT (KAPPA) =    0.800000E-01
 UNDER-RELAXATION PREVIOUS HISTORY FACTOR   (GAMMA) =    0.500000E-01
 UNDER-RELAXATION MOMENTUM TERM         (AMOMENTUM) =    0.000000E+00
 MAXIMUM NUMBER OF BACKTRACKS            (NUMTRACK) = 20
 BACKTRACKING TOLERANCE FACTOR               (BTOL) =    0.200000E+01
 BACKTRACKING REDUCTION FACTOR             (BREDUC) =    0.200000E+00
 BACKTRACKING RESIDUAL LIMIT              (RES_LIM) =    0.500000E-03

       SOLUTION BY THE BICONJUGATE-GRADIENT STABILIZED METHOD
 ------------------------------------------------------------------
 MAXIMUM OF 2000 CALLS OF SOLUTION ROUTINE
 MAXIMUM OF 100 INTERNAL ITERATIONS PER CALL TO SOLUTION ROUTINE
 LINEAR ACCELERATION METHOD            = BCGS      
 MATRIX PRECONDITIONING TYPE           = INCOMPLETE LUT      
 MATRIX SCALING APPROACH               = NO SCALING          
 MATRIX REORDERING APPROACH            = ORIGINAL ORDERING        
 NUMBER OF ORTHOGONALIZATIONS          = 2
 HEAD CHANGE CRITERION FOR CLOSURE     =    0.10000E-04
 RESIDUAL CHANGE CRITERION FOR CLOSURE =    0.10000E-03
 RESIDUAL CONVERGENCE OPTION           = 3
 RESIDUAL CONVERGENCE NORM             = RELATIVE L2NORM 
 RELAXATION FACTOR                     =    0.00000E+00
 NUMBER OF LEVELS                      =              8
 DROP TOLERANCE                        =    0.10000E-02


 
    Solving:  Stress period:     1    Time step:     1
 
1
 STRESS PERIOD NO. 1, LENGTH =   1.000000    
 ------------------------------------------
 NUMBER OF TIME STEPS = 1
 MULTIPLIER FOR DELT =     1.000
 INITIAL TIME STEP SIZE =   1.000000    

 SLN_1 OUTER ITERATION SUMMARY
 ----------------------------------------------------------------------------------------------------------------------------------------------------------------
                                OUTER      INNER  BACKTRACK  BACKTRACK        INCOMING        OUTGOING                    STEP   MAXIMUM CHANGE MODEL-(CELLID) OR
 OUTER ITERATION STEP       ITERATION  ITERATION       FLAG ITERATIONS        RESIDUAL        RESIDUAL  MAXIMUM CHANGE SUCCESS             MODEL-PACKAGE-(NUMBER)
 ----------------------------------------------------------------------------------------------------------------------------------------------------------------
 Backtracking                       1                     0          0  1.66387057E-02  1.66387057E-02                       *                                   
 Model                              1          1                                                        2.11150829E-03                              1_GWF-(1,1,1)
 Backtracking                       2                     0          0  3.30263816E-10  3.30263816E-10                       *                                   
 Model                              2          1                                                       -4.13002965E-14       *                      1_GWF-(1,1,1)
 ----------------------------------------------------------------------------------------------------------------------------------------------------------------


 2 CALLS TO NUMERICAL SOLUTION IN TIME STEP 1 STRESS PERIOD 1
 2 TOTAL ITERATIONS
 
    Solving:  Stress period:     2    Time step:     1
 
1
 STRESS PERIOD NO. 2, LENGTH =   1.000000    
 ------------------------------------------
 NUMBER OF TIME STEPS = 1
 MULTIPLIER FOR DELT =     1.000
 INITIAL TIME STEP SIZE =   1.000000    

 SLN_1 OUTER ITERATION SUMMARY
 ----------------------------------------------------------------------------------------------------------------------------------------------------------------
                                OUTER      INNER  BACKTRACK  BACKTRACK        INCOMING        OUTGOING                    STEP   MAXIMUM CHANGE MODEL-(CELLID) OR
 OUTER ITERATION STEP       ITERATION  ITERATION       FLAG ITERATIONS        RESIDUAL        RESIDUAL  MAXIMUM CHANGE SUCCESS             MODEL-PACKAGE-(NUMBER)
 ----------------------------------------------------------------------------------------------------------------------------------------------------------------
 Backtracking                       1                     0          0  1.45766267E-02  1.45766267E-02                       *                                   
 Model                              1          1                                                        3.35174153E-03                              1_GWF-(1,1,1)
 Backtracking                       2                     0          0  2.05634558E-03  2.05634558E-03                       *                                   
 Model                              2          1                                                       -4.08080317E-04                              1_GWF-(1,1,1)
 Backtracking                       3                     4          0  5.00735739E-03  5.00735739E-03                       *                                   
 Model                              3          1                                                       -7.73813661E-04                              1_GWF-(1,1,1)
 Backtracking                       4                     0          0  6.87518763E-04  6.87518763E-04                       *                                   
 Model                              4          1                                                        1.19683756E-04                              1_GWF-(1,1,1)
 Backtracking                       5                     0          0  3.12133519E-04  3.12133519E-04                       *                                   
 Model                              5          1                                                        5.43364253E-05       *                      1_GWF-(1,1,1)
 ----------------------------------------------------------------------------------------------------------------------------------------------------------------


 5 CALLS TO NUMERICAL SOLUTION IN TIME STEP 1 STRESS PERIOD 2
 5 TOTAL ITERATIONS
 
    Solving:  Stress period:     3    Time step:     1
 
1
 STRESS PERIOD NO. 3, LENGTH =   1.000000    
 ------------------------------------------
 NUMBER OF TIME STEPS = 1
 MULTIPLIER FOR DELT =     1.000
 INITIAL TIME STEP SIZE =   1.000000    

 SLN_1 OUTER ITERATION SUMMARY
 ----------------------------------------------------------------------------------------------------------------------------------------------------------------
                                OUTER      INNER  BACKTRACK  BACKTRACK        INCOMING        OUTGOING                    STEP   MAXIMUM CHANGE MODEL-(CELLID) OR
 OUTER ITERATION STEP       ITERATION  ITERATION       FLAG ITERATIONS        RESIDUAL        RESIDUAL  MAXIMUM CHANGE SUCCESS             MODEL-PACKAGE-(NUMBER)
 ----------------------------------------------------------------------------------------------------------------------------------------------------------------
 Backtracking                       1                     0          0  1.23070823E-02  1.23070823E-02                       *                                   
 Model                              1          1                                                        3.07537696E-03                              1_GWF-(1,1,1)
 Backtracking                       2                     0          0  4.30266145E-04  4.30266145E-04                       *                                   
 Model                              2          1                                                        1.08442070E-04                              1_GWF-(1,1,1)
 Backtracking                       3                     0          0  1.82472851E-05  1.82472851E-05                       *                                   
 Model                              3          1                                                       -4.59231548E-06       *                      1_GWF-(1,1,1)
 ----------------------------------------------------------------------------------------------------------------------------------------------------------------


 3 CALLS TO NUMERICAL SOLUTION IN TIME STEP 1 STRESS PERIOD 3
 3 TOTAL ITERATIONS
 
    Solving:  Stress period:     4    Time step:     1
 
1
 STRESS PERIOD NO. 4, LENGTH =   1.000000    
 ------------------------------------------
 NUMBER OF TIME STEPS = 1
 MULTIPLIER FOR DELT =     1.000
 INITIAL TIME STEP SIZE =   1.000000    

 SLN_1 OUTER ITERATION SUMMARY
 ----------------------------------------------------------------------------------------------------------------------------------------------------------------
                                OUTER      INNER  BACKTRACK  BACKTRACK        INCOMING        OUTGOING                    STEP   MAXIMUM CHANGE MODEL-(CELLID) OR
 OUTER ITERATION STEP       ITERATION  ITERATION       FLAG ITERATIONS        RESIDUAL        RESIDUAL  MAXIMUM CHANGE SUCCESS             MODEL-PACKAGE-(NUMBER)
 ----------------------------------------------------------------------------------------------------------------------------------------------------------------
 Backtracking                       1                     0          0  9.53714040E-03  9.53714040E-03                       *                                   
 Model                              1          1                                                        2.90515788E-03                              1_GWF-(1,1,1)
 Backtracking                       2                     0          0  6.45969920E-04  6.45969920E-04                       *                                   
 Model                              2          1                                                        2.02011513E-04                              1_GWF-(1,1,1)
 Backtracking                       3                     0          0  9.46542181E-06  9.46542181E-06                       *                                   
 Model                              3          1                                                        2.96289769E-06       *                      1_GWF-(1,1,1)
 ----------------------------------------------------------------------------------------------------------------------------------------------------------------


 3 CALLS TO NUMERICAL SOLUTION IN TIME STEP 1 STRESS PERIOD 4
 3 TOTAL ITERATIONS
 
    Solving:  Stress period:     5    Time step:     1
 
1
 STRESS PERIOD NO. 5, LENGTH =   1.000000    
 ------------------------------------------
 NUMBER OF TIME STEPS = 1
 MULTIPLIER FOR DELT =     1.000
 INITIAL TIME STEP SIZE =   1.000000    

 SLN_1 OUTER ITERATION SUMMARY
 ----------------------------------------------------------------------------------------------------------------------------------------------------------------
                                OUTER      INNER  BACKTRACK  BACKTRACK        INCOMING        OUTGOING                    STEP   MAXIMUM CHANGE MODEL-(CELLID) OR
 OUTER ITERATION STEP       ITERATION  ITERATION       FLAG ITERATIONS        RESIDUAL        RESIDUAL  MAXIMUM CHANGE SUCCESS             MODEL-PACKAGE-(NUMBER)
 ----------------------------------------------------------------------------------------------------------------------------------------------------------------
 Backtracking                       1                     0          0  6.91615646E-03  6.91615646E-03                       *                                   
 Model                              1          1                                                        2.36457663E-03                              1_GWF-(1,1,1)
 Backtracking                       2                     0          0  8.64738764E-04  8.64738764E-04                       *                                   
 Model                              2          1                                                        3.17361301E-04                              1_GWF-(1,1,1)
 Backtracking                       3                     0          0  6.93908968E-05  6.93908968E-05                       *                                   
 Model                              3          1                                                        2.57107719E-05       *                      1_GWF-(1,1,1)
 ----------------------------------------------------------------------------------------------------------------------------------------------------------------


 3 CALLS TO NUMERICAL SOLUTION IN TIME STEP 1 STRESS PERIOD 5
 3 TOTAL ITERATIONS
 
    Solving:  Stress period:     6    Time step:     1
 
1
 STRESS PERIOD NO. 6, LENGTH =   1.000000    
 ------------------------------------------
 NUMBER OF TIME STEPS = 1
 MULTIPLIER FOR DELT =     1.000
 INITIAL TIME STEP SIZE =   1.000000    

 SLN_1 OUTER ITERATION SUMMARY
 ----------------------------------------------------------------------------------------------------------------------------------------------------------------
                                OUTER      INNER  BACKTRACK  BACKTRACK        INCOMING        OUTGOING                    STEP   MAXIMUM CHANGE MODEL-(CELLID) OR
 OUTER ITERATION STEP       ITERATION  ITERATION       FLAG ITERATIONS        RESIDUAL        RESIDUAL  MAXIMUM CHANGE SUCCESS             MODEL-PACKAGE-(NUMBER)
 ----------------------------------------------------------------------------------------------------------------------------------------------------------------
 Backtracking                       1                     0          0  4.69475052E-03  4.69475052E-03                       *                                   
 Model                              1          1                                                        1.71164802E-03                              1_GWF-(1,1,1)
 Backtracking                       2                     0          0  8.25589635E-04  8.25589635E-04                       *                                   
 Model                              2          1                                                        3.35661889E-04                              1_GWF-(1,1,1)
 Backtracking                       3                     0          0  1.18530091E-04  1.18530091E-04                       *                                   
 Model                              3          1                                                        4.93527534E-05       *                      1_GWF-(1,1,1)
 ----------------------------------------------------------------------------------------------------------------------------------------------------------------


 3 CALLS TO NUMERICAL SOLUTION IN TIME STEP 1 STRESS PERIOD 6
 3 TOTAL ITERATIONS
 
    Solving:  Stress period:     7    Time step:     1
 
1
 STRESS PERIOD NO. 7, LENGTH =   1.000000    
 ------------------------------------------
 NUMBER OF TIME STEPS = 1
 MULTIPLIER FOR DELT =     1.000
 INITIAL TIME STEP SIZE =   1.000000    

 SLN_1 OUTER ITERATION SUMMARY
 ----------------------------------------------------------------------------------------------------------------------------------------------------------------
                                OUTER      INNER  BACKTRACK  BACKTRACK        INCOMING        OUTGOING                    STEP   MAXIMUM CHANGE MODEL-(CELLID) OR
 OUTER ITERATION STEP       ITERATION  ITERATION       FLAG ITERATIONS        RESIDUAL        RESIDUAL  MAXIMUM CHANGE SUCCESS             MODEL-PACKAGE-(NUMBER)
 ----------------------------------------------------------------------------------------------------------------------------------------------------------------
 Backtracking                       1                     0          0  3.03196430E-03  3.03196430E-03                       *                                   
 Model                              1          1                                                        1.10569278E-03                              1_GWF-(1,1,1)
 Backtracking                       2                     0          0  6.74704032E-04  6.74704032E-04                       *                                   
 Model                              2          1                                                        2.84587052E-04                              1_GWF-(1,1,1)
 Backtracking                       3                     0          0  1.28035146E-04  1.28035146E-04                       *                                   
 Model                              3          1                                                        5.61871938E-05       *                      1_GWF-(1,1,1)
 ----------------------------------------------------------------------------------------------------------------------------------------------------------------


 3 CALLS TO NUMERICAL SOLUTION IN TIME STEP 1 STRESS PERIOD 7
 3 TOTAL ITERATIONS
 
    Solving:  Stress period:     8    Time step:     1
 
1
 STRESS PERIOD NO. 8, LENGTH =   1.000000    
 ------------------------------------------
 NUMBER OF TIME STEPS = 1
 MULTIPLIER FOR DELT =     1.000
 INITIAL TIME STEP SIZE =   1.000000    

 SLN_1 OUTER ITERATION SUMMARY
 ----------------------------------------------------------------------------------------------------------------------------------------------------------------
                                OUTER      INNER  BACKTRACK  BACKTRACK        INCOMING        OUTGOING                    STEP   MAXIMUM CHANGE MODEL-(CELLID) OR
 OUTER ITERATION STEP       ITERATION  ITERATION       FLAG ITERATIONS        RESIDUAL        RESIDUAL  MAXIMUM CHANGE SUCCESS             MODEL-PACKAGE-(NUMBER)
 ----------------------------------------------------------------------------------------------------------------------------------------------------------------
 Backtracking                       1                     0          0  1.93822386E-03  1.93822386E-03                       *                                   
 Model                              1          1                                                        6.60413078E-04                              1_GWF-(1,1,1)
 Backtracking                       2                     0          0  5.16208871E-04  5.16208871E-04                       *                                   
 Model                              2          1                                                        2.12384964E-04                              1_GWF-(1,1,1)
 Backtracking                       3                     0          0  1.06403872E-04  1.06403872E-04                       *                                   
 Model                              3          1                                                        4.60897603E-05       *                      1_GWF-(1,1,1)
 ----------------------------------------------------------------------------------------------------------------------------------------------------------------


 3 CALLS TO NUMERICAL SOLUTION IN TIME STEP 1 STRESS PERIOD 8
 3 TOTAL ITERATIONS
 
    Solving:  Stress period:     9    Time step:     1
 
1
 STRESS PERIOD NO. 9, LENGTH =   1.000000    
 ------------------------------------------
 NUMBER OF TIME STEPS = 1
 MULTIPLIER FOR DELT =     1.000
 INITIAL TIME STEP SIZE =   1.000000    

 SLN_1 OUTER ITERATION SUMMARY
 ----------------------------------------------------------------------------------------------------------------------------------------------------------------
                                OUTER      INNER  BACKTRACK  BACKTRACK        INCOMING        OUTGOING                    STEP   MAXIMUM CHANGE MODEL-(CELLID) OR
 OUTER ITERATION STEP       ITERATION  ITERATION       FLAG ITERATIONS        RESIDUAL        RESIDUAL  MAXIMUM CHANGE SUCCESS             MODEL-PACKAGE-(NUMBER)
 ----------------------------------------------------------------------------------------------------------------------------------------------------------------
 Backtracking                       1                     0          0  1.29223359E-03  1.29223359E-03                       *                                   
 Model                              1          1                                                        3.92401217E-04                              1_GWF-(1,1,1)
 Backtracking                       2                     0          0  3.95439119E-04  3.95439119E-04                       *                                   
 Model                              2          1                                                        1.53006219E-04                              1_GWF-(1,1,1)
 Backtracking                       3                     0          0  7.71033804E-05  7.71033804E-05                       *                                   
 Model                              3          1                                                        3.15597010E-05       *                      1_GWF-(1,1,1)
 ----------------------------------------------------------------------------------------------------------------------------------------------------------------


 3 CALLS TO NUMERICAL SOLUTION IN TIME STEP 1 STRESS PERIOD 9
 3 TOTAL ITERATIONS
 
    Solving:  Stress period:    10    Time step:     1
 
1
 STRESS PERIOD NO. 10, LENGTH =   1.000000    
 ------------------------------------------
 NUMBER OF TIME STEPS = 1
 MULTIPLIER FOR DELT =     1.000
 INITIAL TIME STEP SIZE =   1.000000    

 SLN_1 OUTER ITERATION SUMMARY
 ----------------------------------------------------------------------------------------------------------------------------------------------------------------
                                OUTER      INNER  BACKTRACK  BACKTRACK        INCOMING        OUTGOING                    STEP   MAXIMUM CHANGE MODEL-(CELLID) OR
 OUTER ITERATION STEP       ITERATION  ITERATION       FLAG ITERATIONS        RESIDUAL        RESIDUAL  MAXIMUM CHANGE SUCCESS             MODEL-PACKAGE-(NUMBER)
 ----------------------------------------------------------------------------------------------------------------------------------------------------------------
 Backtracking                       1                     0          0  9.26250678E-04  9.26250678E-04                       *                                   
 Model                              1          1                                                        2.47892038E-04                              1_GWF-(1,1,1)
 Backtracking                       2                     0          0  3.12333380E-04  3.12333380E-04                       *                                   
 Model                              2          1                                                        1.12522589E-04                              1_GWF-(1,1,1)
 Backtracking                       3                     0          0  5.47697600E-05  5.47697600E-05                       *                                   
 Model                              3          1                                                        2.08744011E-05       *                      1_GWF-(1,1,1)
 ----------------------------------------------------------------------------------------------------------------------------------------------------------------


 3 CALLS TO NUMERICAL SOLUTION IN TIME STEP 1 STRESS PERIOD 10
 3 TOTAL ITERATIONS
 
    Solving:  Stress period:    11    Time step:     1
 
1
 STRESS PERIOD NO. 11, LENGTH =   1.000000    
 ------------------------------------------
 NUMBER OF TIME STEPS = 1
 MULTIPLIER FOR DELT =     1.000
 INITIAL TIME STEP SIZE =   1.000000    

 SLN_1 OUTER ITERATION SUMMARY
 ----------------------------------------------------------------------------------------------------------------------------------------------------------------
                                OUTER      INNER  BACKTRACK  BACKTRACK        INCOMING        OUTGOING                    STEP   MAXIMUM CHANGE MODEL-(CELLID) OR
 OUTER ITERATION STEP       ITERATION  ITERATION       FLAG ITERATIONS        RESIDUAL        RESIDUAL  MAXIMUM CHANGE SUCCESS             MODEL-PACKAGE-(NUMBER)
 ----------------------------------------------------------------------------------------------------------------------------------------------------------------
 Backtracking                       1                     0          0  7.25868439E-04  7.25868439E-04                       *                                   
 Model                              1          1                                                        1.73414567E-04                              1_GWF-(1,1,1)
 Backtracking                       2                     0          0  2.59990790E-04  2.59990790E-04                       *                                   
 Model                              2          1                                                        8.75497704E-05       *                      1_GWF-(1,1,1)
 ----------------------------------------------------------------------------------------------------------------------------------------------------------------


 2 CALLS TO NUMERICAL SOLUTION IN TIME STEP 1 STRESS PERIOD 11
 2 TOTAL ITERATIONS
 
    Solving:  Stress period:    12    Time step:     1
 
1
 STRESS PERIOD NO. 12, LENGTH =   1.000000    
 ------------------------------------------
 NUMBER OF TIME STEPS = 1
 MULTIPLIER FOR DELT =     1.000
 INITIAL TIME STEP SIZE =   1.000000    

 SLN_1 OUTER ITERATION SUMMARY
 ----------------------------------------------------------------------------------------------------------------------------------------------------------------
                                OUTER      INNER  BACKTRACK  BACKTRACK        INCOMING        OUTGOING                    STEP   MAXIMUM CHANGE MODEL-(CELLID) OR
 OUTER ITERATION STEP       ITERATION  ITERATION       FLAG ITERATIONS        RESIDUAL        RESIDUAL  MAXIMUM CHANGE SUCCESS             MODEL-PACKAGE-(NUMBER)
 ----------------------------------------------------------------------------------------------------------------------------------------------------------------
 Backtracking                       1                     0          0  6.37794526E-04  6.37794526E-04                       *                                   
 Model                              1          1                                                        1.36643323E-04                              1_GWF-(1,1,1)
 Backtracking                       2                     0          0  2.40860884E-04  2.40860884E-04                       *                                   
 Model                              2          1                                                        7.64223746E-05       *                      1_GWF-(1,1,1)
 ----------------------------------------------------------------------------------------------------------------------------------------------------------------


 2 CALLS TO NUMERICAL SOLUTION IN TIME STEP 1 STRESS PERIOD 12
 2 TOTAL ITERATIONS
 
    Solving:  Stress period:    13    Time step:     1
 
1
 STRESS PERIOD NO. 13, LENGTH =   1.000000    
 ------------------------------------------
 NUMBER OF TIME STEPS = 1
 MULTIPLIER FOR DELT =     1.000
 INITIAL TIME STEP SIZE =   1.000000    

 SLN_1 OUTER ITERATION SUMMARY
 ----------------------------------------------------------------------------------------------------------------------------------------------------------------
                                OUTER      INNER  BACKTRACK  BACKTRACK        INCOMING        OUTGOING                    STEP   MAXIMUM CHANGE MODEL-(CELLID) OR
 OUTER ITERATION STEP       ITERATION  ITERATION       FLAG ITERATIONS        RESIDUAL        RESIDUAL  MAXIMUM CHANGE SUCCESS             MODEL-PACKAGE-(NUMBER)
 ----------------------------------------------------------------------------------------------------------------------------------------------------------------
 Backtracking                       1                     0          0  6.09066080E-04  6.09066080E-04                       *                                   
 Model                              1          1                                                        1.21205721E-04                              1_GWF-(1,1,1)
 Backtracking                       2                     0          0  2.37114765E-04  2.37114765E-04                       *                                   
 Model                              2          1                                                        7.19841360E-05       *                      1_GWF-(1,1,1)
 ----------------------------------------------------------------------------------------------------------------------------------------------------------------


 2 CALLS TO NUMERICAL SOLUTION IN TIME STEP 1 STRESS PERIOD 13
 2 TOTAL ITERATIONS
 
    Solving:  Stress period:    14    Time step:     1
 
1
 STRESS PERIOD NO. 14, LENGTH =   1.000000    
 ------------------------------------------
 NUMBER OF TIME STEPS = 1
 MULTIPLIER FOR DELT =     1.000
 INITIAL TIME STEP SIZE =   1.000000    

 SLN_1 OUTER ITERATION SUMMARY
 ----------------------------------------------------------------------------------------------------------------------------------------------------------------
                                OUTER      INNER  BACKTRACK  BACKTRACK        INCOMING        OUTGOING                    STEP   MAXIMUM CHANGE MODEL-(CELLID) OR
 OUTER ITERATION STEP       ITERATION  ITERATION       FLAG ITERATIONS        RESIDUAL        RESIDUAL  MAXIMUM CHANGE SUCCESS             MODEL-PACKAGE-(NUMBER)
 ----------------------------------------------------------------------------------------------------------------------------------------------------------------
 Backtracking                       1                     0          0  6.34876078E-04  6.34876078E-04                       *                                   
 Model                              1          1                                                        1.19423748E-04                              1_GWF-(1,1,1)
 Backtracking                       2                     0          0  2.52390197E-04  2.52390197E-04                       *                                   
 Model                              2          1                                                        7.40339792E-05       *                      1_GWF-(1,1,1)
 ----------------------------------------------------------------------------------------------------------------------------------------------------------------


 2 CALLS TO NUMERICAL SOLUTION IN TIME STEP 1 STRESS PERIOD 14
 2 TOTAL ITERATIONS
 
    Solving:  Stress period:    15    Time step:     1
 
1
 STRESS PERIOD NO. 15, LENGTH =   1.000000    
 ------------------------------------------
 NUMBER OF TIME STEPS = 1
 MULTIPLIER FOR DELT =     1.000
 INITIAL TIME STEP SIZE =   1.000000    

 SLN_1 OUTER ITERATION SUMMARY
 ----------------------------------------------------------------------------------------------------------------------------------------------------------------
                                OUTER      INNER  BACKTRACK  BACKTRACK        INCOMING        OUTGOING                    STEP   MAXIMUM CHANGE MODEL-(CELLID) OR
 OUTER ITERATION STEP       ITERATION  ITERATION       FLAG ITERATIONS        RESIDUAL        RESIDUAL  MAXIMUM CHANGE SUCCESS             MODEL-PACKAGE-(NUMBER)
 ----------------------------------------------------------------------------------------------------------------------------------------------------------------
 Backtracking                       1                     0          0  7.00941777E-04  7.00941777E-04                       *                                   
 Model                              1          1                                                        1.26380199E-04                              1_GWF-(1,1,1)
 Backtracking                       2                     0          0  2.83056141E-04  2.83056141E-04                       *                                   
 Model                              2          1                                                        8.08490521E-05       *                      1_GWF-(1,1,1)
 ----------------------------------------------------------------------------------------------------------------------------------------------------------------


 2 CALLS TO NUMERICAL SOLUTION IN TIME STEP 1 STRESS PERIOD 15
 2 TOTAL ITERATIONS
 
    Solving:  Stress period:    16    Time step:     1
 
1
 STRESS PERIOD NO. 16, LENGTH =   1.000000    
 ------------------------------------------
 NUMBER OF TIME STEPS = 1
 MULTIPLIER FOR DELT =     1.000
 INITIAL TIME STEP SIZE =   1.000000    

 SLN_1 OUTER ITERATION SUMMARY
 ----------------------------------------------------------------------------------------------------------------------------------------------------------------
                                OUTER      INNER  BACKTRACK  BACKTRACK        INCOMING        OUTGOING                    STEP   MAXIMUM CHANGE MODEL-(CELLID) OR
 OUTER ITERATION STEP       ITERATION  ITERATION       FLAG ITERATIONS        RESIDUAL        RESIDUAL  MAXIMUM CHANGE SUCCESS             MODEL-PACKAGE-(NUMBER)
 ----------------------------------------------------------------------------------------------------------------------------------------------------------------
 Backtracking                       1                     0          0  8.04189996E-04  8.04189996E-04                       *                                   
 Model                              1          1                                                        1.40442061E-04                              1_GWF-(1,1,1)
 Backtracking                       2                     0          0  3.28614808E-04  3.28614808E-04                       *                                   
 Model                              2          1                                                        9.19652532E-05       *                      1_GWF-(1,1,1)
 ----------------------------------------------------------------------------------------------------------------------------------------------------------------


 2 CALLS TO NUMERICAL SOLUTION IN TIME STEP 1 STRESS PERIOD 16
 2 TOTAL ITERATIONS
 
    Solving:  Stress period:    17    Time step:     1
 
1
 STRESS PERIOD NO. 17, LENGTH =   1.000000    
 ------------------------------------------
 NUMBER OF TIME STEPS = 1
 MULTIPLIER FOR DELT =     1.000
 INITIAL TIME STEP SIZE =   1.000000    

 SLN_1 OUTER ITERATION SUMMARY
 ----------------------------------------------------------------------------------------------------------------------------------------------------------------
                                OUTER      INNER  BACKTRACK  BACKTRACK        INCOMING        OUTGOING                    STEP   MAXIMUM CHANGE MODEL-(CELLID) OR
 OUTER ITERATION STEP       ITERATION  ITERATION       FLAG ITERATIONS        RESIDUAL        RESIDUAL  MAXIMUM CHANGE SUCCESS             MODEL-PACKAGE-(NUMBER)
 ----------------------------------------------------------------------------------------------------------------------------------------------------------------
 Backtracking                       1                     0          0  9.38268817E-04  9.38268817E-04                       *                                   
 Model                              1          1                                                        1.60010596E-04                              1_GWF-(1,1,1)
 Backtracking                       2                     0          0  3.86962049E-04  3.86962049E-04                       *                                   
 Model                              2          1                                                        1.06625465E-04                              1_GWF-(1,1,1)
 Backtracking                       3                     0          0  1.76577294E-05  1.76577294E-05                       *                                   
 Model                              3          1                                                        4.95593034E-06       *                      1_GWF-(1,1,1)
 ----------------------------------------------------------------------------------------------------------------------------------------------------------------


 3 CALLS TO NUMERICAL SOLUTION IN TIME STEP 1 STRESS PERIOD 17
 3 TOTAL ITERATIONS
 
    Solving:  Stress period:    18    Time step:     1
 
1
 STRESS PERIOD NO. 18, LENGTH =   1.000000    
 ------------------------------------------
 NUMBER OF TIME STEPS = 1
 MULTIPLIER FOR DELT =     1.000
 INITIAL TIME STEP SIZE =   1.000000    

 SLN_1 OUTER ITERATION SUMMARY
 ----------------------------------------------------------------------------------------------------------------------------------------------------------------
                                OUTER      INNER  BACKTRACK  BACKTRACK        INCOMING        OUTGOING                    STEP   MAXIMUM CHANGE MODEL-(CELLID) OR
 OUTER ITERATION STEP       ITERATION  ITERATION       FLAG ITERATIONS        RESIDUAL        RESIDUAL  MAXIMUM CHANGE SUCCESS             MODEL-PACKAGE-(NUMBER)
 ----------------------------------------------------------------------------------------------------------------------------------------------------------------
 Backtracking                       1                     0          0  1.09997030E-03  1.09997030E-03                       *                                   
 Model                              1          1                                                        1.84974992E-04                              1_GWF-(1,1,1)
 Backtracking                       2                     0          0  4.56554433E-04  4.56554433E-04                       *                                   
 Model                              2          1                                                        1.24612825E-04                              1_GWF-(1,1,1)
 Backtracking                       3                     0          0  1.78713121E-05  1.78713121E-05                       *                                   
 Model                              3          1                                                        4.95591087E-06       *                      1_GWF-(1,1,1)
 ----------------------------------------------------------------------------------------------------------------------------------------------------------------


 3 CALLS TO NUMERICAL SOLUTION IN TIME STEP 1 STRESS PERIOD 18
 3 TOTAL ITERATIONS
 
    Solving:  Stress period:    19    Time step:     1
 
1
 STRESS PERIOD NO. 19, LENGTH =   1.000000    
 ------------------------------------------
 NUMBER OF TIME STEPS = 1
 MULTIPLIER FOR DELT =     1.000
 INITIAL TIME STEP SIZE =   1.000000    

 SLN_1 OUTER ITERATION SUMMARY
 ----------------------------------------------------------------------------------------------------------------------------------------------------------------
                                OUTER      INNER  BACKTRACK  BACKTRACK        INCOMING        OUTGOING                    STEP   MAXIMUM CHANGE MODEL-(CELLID) OR
 OUTER ITERATION STEP       ITERATION  ITERATION       FLAG ITERATIONS        RESIDUAL        RESIDUAL  MAXIMUM CHANGE SUCCESS             MODEL-PACKAGE-(NUMBER)
 ----------------------------------------------------------------------------------------------------------------------------------------------------------------
 Backtracking                       1                     0          0  1.30376787E-03  1.30376787E-03                       *                                   
 Model                              1          1                                                        2.16672516E-04                              1_GWF-(1,1,1)
 Backtracking                       2                     0          0  5.43880456E-04  5.43880456E-04                       *                                   
 Model                              2          1                                                        1.47373764E-04                              1_GWF-(1,1,1)
 Backtracking                       3                     0          0  1.61912849E-05  1.61912849E-05                       *                                   
 Model                              3          1                                                        4.44082202E-06       *                      1_GWF-(1,1,1)
 ----------------------------------------------------------------------------------------------------------------------------------------------------------------


 3 CALLS TO NUMERICAL SOLUTION IN TIME STEP 1 STRESS PERIOD 19
 3 TOTAL ITERATIONS
 
    Solving:  Stress period:    20    Time step:     1
 
1
 STRESS PERIOD NO. 20, LENGTH =   1.000000    
 ------------------------------------------
 NUMBER OF TIME STEPS = 1
 MULTIPLIER FOR DELT =     1.000
 INITIAL TIME STEP SIZE =   1.000000    

 SLN_1 OUTER ITERATION SUMMARY
 ----------------------------------------------------------------------------------------------------------------------------------------------------------------
                                OUTER      INNER  BACKTRACK  BACKTRACK        INCOMING        OUTGOING                    STEP   MAXIMUM CHANGE MODEL-(CELLID) OR
 OUTER ITERATION STEP       ITERATION  ITERATION       FLAG ITERATIONS        RESIDUAL        RESIDUAL  MAXIMUM CHANGE SUCCESS             MODEL-PACKAGE-(NUMBER)
 ----------------------------------------------------------------------------------------------------------------------------------------------------------------
 Backtracking                       1                     0          0  1.56038549E-03  1.56038549E-03                       *                                   
 Model                              1          1                                                        2.56544674E-04                              1_GWF-(1,1,1)
 Backtracking                       2                     0          0  6.53627203E-04  6.53627203E-04                       *                                   
 Model                              2          1                                                        1.75898495E-04                              1_GWF-(1,1,1)
 Backtracking                       3                     0          0  1.29614942E-05  1.29614942E-05                       *                                   
 Model                              3          1                                                        3.51644413E-06       *                      1_GWF-(1,1,1)
 ----------------------------------------------------------------------------------------------------------------------------------------------------------------


 3 CALLS TO NUMERICAL SOLUTION IN TIME STEP 1 STRESS PERIOD 20
 3 TOTAL ITERATIONS
 
    Solving:  Stress period:    21    Time step:     1
 
1
 STRESS PERIOD NO. 21, LENGTH =   1.000000    
 ------------------------------------------
 NUMBER OF TIME STEPS = 1
 MULTIPLIER FOR DELT =     1.000
 INITIAL TIME STEP SIZE =   1.000000    

 SLN_1 OUTER ITERATION SUMMARY
 ----------------------------------------------------------------------------------------------------------------------------------------------------------------
                                OUTER      INNER  BACKTRACK  BACKTRACK        INCOMING        OUTGOING                    STEP   MAXIMUM CHANGE MODEL-(CELLID) OR
 OUTER ITERATION STEP       ITERATION  ITERATION       FLAG ITERATIONS        RESIDUAL        RESIDUAL  MAXIMUM CHANGE SUCCESS             MODEL-PACKAGE-(NUMBER)
 ----------------------------------------------------------------------------------------------------------------------------------------------------------------
 Backtracking                       1                     0          0  1.86399169E-03  1.86399169E-03                       *                                   
 Model                              1          1                                                        3.04174639E-04                              1_GWF-(1,1,1)
 Backtracking                       2                     0          0  7.83434249E-04  7.83434249E-04                       *                                   
 Model                              2          1                                                        2.09844354E-04                              1_GWF-(1,1,1)
 Backtracking                       3                     0          0  7.84903806E-06  7.84903806E-06                       *                                   
 Model                              3          1                                                        2.11100639E-06       *                      1_GWF-(1,1,1)
 ----------------------------------------------------------------------------------------------------------------------------------------------------------------


 3 CALLS TO NUMERICAL SOLUTION IN TIME STEP 1 STRESS PERIOD 21
 3 TOTAL ITERATIONS
 
    Solving:  Stress period:    22    Time step:     1
 
1
 STRESS PERIOD NO. 22, LENGTH =   1.000000    
 ------------------------------------------
 NUMBER OF TIME STEPS = 1
 MULTIPLIER FOR DELT =     1.000
 INITIAL TIME STEP SIZE =   1.000000    

 SLN_1 OUTER ITERATION SUMMARY
 ----------------------------------------------------------------------------------------------------------------------------------------------------------------
                                OUTER      INNER  BACKTRACK  BACKTRACK        INCOMING        OUTGOING                    STEP   MAXIMUM CHANGE MODEL-(CELLID) OR
 OUTER ITERATION STEP       ITERATION  ITERATION       FLAG ITERATIONS        RESIDUAL        RESIDUAL  MAXIMUM CHANGE SUCCESS             MODEL-PACKAGE-(NUMBER)
 ----------------------------------------------------------------------------------------------------------------------------------------------------------------
 Backtracking                       1                     0          0  2.20915920E-03  2.20915920E-03                       *                                   
 Model                              1          1                                                        3.58798846E-04                              1_GWF-(1,1,1)
 Backtracking                       2                     0          0  9.30483519E-04  9.30483519E-04                       *                                   
 Model                              2          1                                                        2.48433384E-04                              1_GWF-(1,1,1)
 Backtracking                       3                     0          0  1.24298953E-06  1.24298953E-06                       *                                   
 Model                              3          1                                                        3.32004339E-07       *                      1_GWF-(1,1,1)
 ----------------------------------------------------------------------------------------------------------------------------------------------------------------


 3 CALLS TO NUMERICAL SOLUTION IN TIME STEP 1 STRESS PERIOD 22
 3 TOTAL ITERATIONS
 
    Solving:  Stress period:    23    Time step:     1
 
1
 STRESS PERIOD NO. 23, LENGTH =   1.000000    
 ------------------------------------------
 NUMBER OF TIME STEPS = 1
 MULTIPLIER FOR DELT =     1.000
 INITIAL TIME STEP SIZE =   1.000000    

 SLN_1 OUTER ITERATION SUMMARY
 ----------------------------------------------------------------------------------------------------------------------------------------------------------------
                                OUTER      INNER  BACKTRACK  BACKTRACK        INCOMING        OUTGOING                    STEP   MAXIMUM CHANGE MODEL-(CELLID) OR
 OUTER ITERATION STEP       ITERATION  ITERATION       FLAG ITERATIONS        RESIDUAL        RESIDUAL  MAXIMUM CHANGE SUCCESS             MODEL-PACKAGE-(NUMBER)
 ----------------------------------------------------------------------------------------------------------------------------------------------------------------
 Backtracking                       1                     0          0  2.61634877E-03  2.61634877E-03                       *                                   
 Model                              1          1                                                        4.24356320E-04                              1_GWF-(1,1,1)
 Backtracking                       2                     0          0  1.10060478E-03  1.10060478E-03                       *                                   
 Model                              2          1                                                        2.93283032E-04                              1_GWF-(1,1,1)
 Backtracking                       3                     0          0  4.21317764E-06  4.21317764E-06                       *                                   
 Model                              3          1                                                       -1.12093643E-06       *                      1_GWF-(1,1,1)
 ----------------------------------------------------------------------------------------------------------------------------------------------------------------


 3 CALLS TO NUMERICAL SOLUTION IN TIME STEP 1 STRESS PERIOD 23
 3 TOTAL ITERATIONS
 
    Solving:  Stress period:    24    Time step:     1
 
1
 STRESS PERIOD NO. 24, LENGTH =   1.000000    
 ------------------------------------------
 NUMBER OF TIME STEPS = 1
 MULTIPLIER FOR DELT =     1.000
 INITIAL TIME STEP SIZE =   1.000000    

 SLN_1 OUTER ITERATION SUMMARY
 ----------------------------------------------------------------------------------------------------------------------------------------------------------------
                                OUTER      INNER  BACKTRACK  BACKTRACK        INCOMING        OUTGOING                    STEP   MAXIMUM CHANGE MODEL-(CELLID) OR
 OUTER ITERATION STEP       ITERATION  ITERATION       FLAG ITERATIONS        RESIDUAL        RESIDUAL  MAXIMUM CHANGE SUCCESS             MODEL-PACKAGE-(NUMBER)
 ----------------------------------------------------------------------------------------------------------------------------------------------------------------
 Backtracking                       1                     0          0  3.09679446E-03  3.09679446E-03                       *                                   
 Model                              1          1                                                        5.03395038E-04                              1_GWF-(1,1,1)
 Backtracking                       2                     0          0  1.29946733E-03  1.29946733E-03                       *                                   
 Model                              2          1                                                        3.46507025E-04                              1_GWF-(1,1,1)
 Backtracking                       3                     0          0  1.15507068E-05  1.15507068E-05                       *                                   
 Model                              3          1                                                       -3.06890529E-06       *                      1_GWF-(1,1,1)
 ----------------------------------------------------------------------------------------------------------------------------------------------------------------


 3 CALLS TO NUMERICAL SOLUTION IN TIME STEP 1 STRESS PERIOD 24
 3 TOTAL ITERATIONS
 
    Solving:  Stress period:    25    Time step:     1
 
1
 STRESS PERIOD NO. 25, LENGTH =   1.000000    
 ------------------------------------------
 NUMBER OF TIME STEPS = 1
 MULTIPLIER FOR DELT =     1.000
 INITIAL TIME STEP SIZE =   1.000000    

 SLN_1 OUTER ITERATION SUMMARY
 ----------------------------------------------------------------------------------------------------------------------------------------------------------------
                                OUTER      INNER  BACKTRACK  BACKTRACK        INCOMING        OUTGOING                    STEP   MAXIMUM CHANGE MODEL-(CELLID) OR
 OUTER ITERATION STEP       ITERATION  ITERATION       FLAG ITERATIONS        RESIDUAL        RESIDUAL  MAXIMUM CHANGE SUCCESS             MODEL-PACKAGE-(NUMBER)
 ----------------------------------------------------------------------------------------------------------------------------------------------------------------
 Backtracking                       1                     0          0  3.62969508E-03  3.62969508E-03                       *                                   
 Model                              1          1                                                        5.92923239E-04                              1_GWF-(1,1,1)
 Backtracking                       2                     0          0  1.51856579E-03  1.51856579E-03                       *                                   
 Model                              2          1                                                        4.05935682E-04                              1_GWF-(1,1,1)
 Backtracking                       3                     0          0  2.07094209E-05  2.07094209E-05                       *                                   
 Model                              3          1                                                       -5.50542708E-06       *                      1_GWF-(1,1,1)
 ----------------------------------------------------------------------------------------------------------------------------------------------------------------


 3 CALLS TO NUMERICAL SOLUTION IN TIME STEP 1 STRESS PERIOD 25
 3 TOTAL ITERATIONS
 
    Solving:  Stress period:    26    Time step:     1
 
1
 STRESS PERIOD NO. 26, LENGTH =   1.000000    
 ------------------------------------------
 NUMBER OF TIME STEPS = 1
 MULTIPLIER FOR DELT =     1.000
 INITIAL TIME STEP SIZE =   1.000000    

 SLN_1 OUTER ITERATION SUMMARY
 ----------------------------------------------------------------------------------------------------------------------------------------------------------------
                                OUTER      INNER  BACKTRACK  BACKTRACK        INCOMING        OUTGOING                    STEP   MAXIMUM CHANGE MODEL-(CELLID) OR
 OUTER ITERATION STEP       ITERATION  ITERATION       FLAG ITERATIONS        RESIDUAL        RESIDUAL  MAXIMUM CHANGE SUCCESS             MODEL-PACKAGE-(NUMBER)
 ----------------------------------------------------------------------------------------------------------------------------------------------------------------
 Backtracking                       1                     0          0  4.44627642E-03  4.44627642E-03                       *                                   
 Model                              1          1                                                        7.33904755E-04                              1_GWF-(1,1,1)
 Backtracking                       2                     0          0  1.84593979E-03  1.84593979E-03                       *                                   
 Model                              2          1                                                        4.96992804E-04                              1_GWF-(1,1,1)
 Backtracking                       3                     0          0  3.66067641E-05  3.66067641E-05                       *                                   
 Model                              3          1                                                       -9.77755513E-06       *                      1_GWF-(1,1,1)
 ----------------------------------------------------------------------------------------------------------------------------------------------------------------


 3 CALLS TO NUMERICAL SOLUTION IN TIME STEP 1 STRESS PERIOD 26
 3 TOTAL ITERATIONS
 
    Solving:  Stress period:    27    Time step:     1
 
1
 STRESS PERIOD NO. 27, LENGTH =   1.000000    
 ------------------------------------------
 NUMBER OF TIME STEPS = 1
 MULTIPLIER FOR DELT =     1.000
 INITIAL TIME STEP SIZE =   1.000000    

 SLN_1 OUTER ITERATION SUMMARY
 ----------------------------------------------------------------------------------------------------------------------------------------------------------------
                                OUTER      INNER  BACKTRACK  BACKTRACK        INCOMING        OUTGOING                    STEP   MAXIMUM CHANGE MODEL-(CELLID) OR
 OUTER ITERATION STEP       ITERATION  ITERATION       FLAG ITERATIONS        RESIDUAL        RESIDUAL  MAXIMUM CHANGE SUCCESS             MODEL-PACKAGE-(NUMBER)
 ----------------------------------------------------------------------------------------------------------------------------------------------------------------
 Backtracking                       1                     0          0  5.34312859E-03  5.34312859E-03                       *                                   
 Model                              1          1                                                        8.95727197E-04                              1_GWF-(1,1,1)
 Backtracking                       2                     0          0  2.20283455E-03  2.20283455E-03                       *                                   
 Model                              2          1                                                        5.98957060E-04                              1_GWF-(1,1,1)
 Backtracking                       3                     0          0  5.63550400E-05  5.63550400E-05                       *                                   
 Model                              3          1                                                       -1.51676025E-05       *                      1_GWF-(1,1,1)
 ----------------------------------------------------------------------------------------------------------------------------------------------------------------


 3 CALLS TO NUMERICAL SOLUTION IN TIME STEP 1 STRESS PERIOD 27
 3 TOTAL ITERATIONS
 
    Solving:  Stress period:    28    Time step:     1
 
1
 STRESS PERIOD NO. 28, LENGTH =   1.000000    
 ------------------------------------------
 NUMBER OF TIME STEPS = 1
 MULTIPLIER FOR DELT =     1.000
 INITIAL TIME STEP SIZE =   1.000000    

 SLN_1 OUTER ITERATION SUMMARY
 ----------------------------------------------------------------------------------------------------------------------------------------------------------------
                                OUTER      INNER  BACKTRACK  BACKTRACK        INCOMING        OUTGOING                    STEP   MAXIMUM CHANGE MODEL-(CELLID) OR
 OUTER ITERATION STEP       ITERATION  ITERATION       FLAG ITERATIONS        RESIDUAL        RESIDUAL  MAXIMUM CHANGE SUCCESS             MODEL-PACKAGE-(NUMBER)
 ----------------------------------------------------------------------------------------------------------------------------------------------------------------
 Backtracking                       1                     0          0  6.29364291E-03  6.29364291E-03                       *                                   
 Model                              1          1                                                        1.07595540E-03                              1_GWF-(1,1,1)
 Backtracking                       2                     0          0  2.58316955E-03  2.58316955E-03                       *                                   
 Model                              2          1                                                        7.13193512E-04                              1_GWF-(1,1,1)
 Backtracking                       3                     0          0  4.33420314E-03  4.33420314E-03                       *                                   
 Model                              3          1                                                        3.61339780E-03                              1_GWF-(1,1,1)
 Backtracking                       4                     0          0  7.41412522E-03  7.41412522E-03                       *                                   
 Model                              4          1                                                       -2.88283180E-03                              1_GWF-(1,1,1)
 Backtracking                       5                     0          0  2.22423757E-03  2.22423757E-03                       *                                   
 Model                              5          1                                                       -8.64849541E-04                              1_GWF-(1,1,1)
 Backtracking                       6                     0          0  4.89332265E-04  4.89332265E-04                       *                                   
 Model                              6          1                                                       -1.90266899E-04                              1_GWF-(1,1,1)
 Backtracking                       7                     0          0  6.85065174E-05  6.85065174E-05                       *                                   
 Model                              7          1                                                       -2.66373648E-05       *                      1_GWF-(1,1,1)
 ----------------------------------------------------------------------------------------------------------------------------------------------------------------


 7 CALLS TO NUMERICAL SOLUTION IN TIME STEP 1 STRESS PERIOD 28
 7 TOTAL ITERATIONS
 
    Solving:  Stress period:    29    Time step:     1
 
1
 STRESS PERIOD NO. 29, LENGTH =   1.000000    
 ------------------------------------------
 NUMBER OF TIME STEPS = 1
 MULTIPLIER FOR DELT =     1.000
 INITIAL TIME STEP SIZE =   1.000000    

 SLN_1 OUTER ITERATION SUMMARY
 ----------------------------------------------------------------------------------------------------------------------------------------------------------------
                                OUTER      INNER  BACKTRACK  BACKTRACK        INCOMING        OUTGOING                    STEP   MAXIMUM CHANGE MODEL-(CELLID) OR
 OUTER ITERATION STEP       ITERATION  ITERATION       FLAG ITERATIONS        RESIDUAL        RESIDUAL  MAXIMUM CHANGE SUCCESS             MODEL-PACKAGE-(NUMBER)
 ----------------------------------------------------------------------------------------------------------------------------------------------------------------
 Backtracking                       1                     0          0  6.54631571E-03  6.54631571E-03                       *                                   
 Model                              1          1                                                        1.17817314E-03                              1_GWF-(1,1,1)
 Backtracking                       2                     0          0  2.70081963E-03  2.70081963E-03                       *                                   
 Model                              2          1                                                        7.65438525E-04                              1_GWF-(1,1,1)
 Backtracking                       3                     0          0  9.21553002E-05  9.21553002E-05                       *                                   
 Model                              3          1                                                       -2.57713980E-05       *                      1_GWF-(1,1,1)
 ----------------------------------------------------------------------------------------------------------------------------------------------------------------


 3 CALLS TO NUMERICAL SOLUTION IN TIME STEP 1 STRESS PERIOD 29
 3 TOTAL ITERATIONS
 
    Solving:  Stress period:    30    Time step:     1
 
1
 STRESS PERIOD NO. 30, LENGTH =   1.000000    
 ------------------------------------------
 NUMBER OF TIME STEPS = 1
 MULTIPLIER FOR DELT =     1.000
 INITIAL TIME STEP SIZE =   1.000000    

 SLN_1 OUTER ITERATION SUMMARY
 ----------------------------------------------------------------------------------------------------------------------------------------------------------------
                                OUTER      INNER  BACKTRACK  BACKTRACK        INCOMING        OUTGOING                    STEP   MAXIMUM CHANGE MODEL-(CELLID) OR
 OUTER ITERATION STEP       ITERATION  ITERATION       FLAG ITERATIONS        RESIDUAL        RESIDUAL  MAXIMUM CHANGE SUCCESS             MODEL-PACKAGE-(NUMBER)
 ----------------------------------------------------------------------------------------------------------------------------------------------------------------
 Backtracking                       1                     0          0  7.76276682E-03  7.76276682E-03                       *                                   
 Model                              1          1                                                        1.40960258E-03                              1_GWF-(1,1,1)
[...]
 MODEL                                              IBOUND           INTEGER                             5 SLN_1/IBOUND                                                       
 SLN_1                                              NROW             INTEGER                             1 --                                                                 
 SLN_1                                              NCOL             INTEGER                             1 --                                                                 
 SLN_1                                              NJA              INTEGER                             1 --                                                                 
 SLN_1                                              IA               INTEGER                             6 --                                                                 
 SLN_1                                              JA               INTEGER                            13 --                                                                 
 SLN_1                                              AMAT             DOUBLE                             13 --                                                                 
 MODEL/IC                                           STRT             DOUBLE                              5 --                                                                 
 MODEL/STO                                          ICONVERT         INTEGER                             5 --                                                                 
 MODEL/STO                                          SS               DOUBLE                              5 --                                                                 
 MODEL/STO                                          SY               DOUBLE                              5 --                                                                 
 MODEL/STO                                          STRGSS           DOUBLE                              5 --                                                                 
 MODEL/STO                                          STRGSY           DOUBLE                              5 --                                                                 
 MODEL/WEL-1                                        NODELIST         INTEGER                             1 --                                                                 
 MODEL/WEL-1                                        NOUPDATEAUXVAR   INTEGER                             0 --                                                                 
 MODEL/WEL-1                                        BOUND            DOUBLE                              0 --                                                                 
 MODEL/WEL-1                                        CONDINPUT        DOUBLE                              0 --                                                                 
 MODEL/WEL-1                                        HCOF             DOUBLE                              1 --                                                                 
 MODEL/WEL-1                                        RHS              DOUBLE                              1 --                                                                 
 MODEL/WEL-1                                        SIMVALS          DOUBLE                              1 --                                                                 
 MODEL/WEL-1                                        SIMTOMVR         DOUBLE                              0 --                                                                 
 MODEL/WEL-1                                        AUXVAR           DOUBLE                              0 --                                                                 
 MODEL/WEL-1                                        BOUNDNAME        STRING LEN=40                       0 --                                                                 
 MODEL/WEL-1                                        BOUNDNAME_CST    STRING LEN=40                       0 --                                                                 
 MODEL/WEL-1                                        CELLID           INTEGER                             3 __INPUT__/MODEL/WEL-1/CELLID                                       
 MODEL/WEL-1                                        BOUNDNAME_IDM    STRING LEN=40                       0 __INPUT__/MODEL/WEL-1/BOUNDNAME                                    
 MODEL/WEL-1                                        AUXVAR_IDM       DOUBLE                              0 __INPUT__/MODEL/WEL-1/AUXVAR                                       
 MODEL/WEL-1                                        Q                DOUBLE                              1 __INPUT__/MODEL/WEL-1/Q                                            
 MODEL/GHB-1                                        NODELIST         INTEGER                             1 --                                                                 
 MODEL/GHB-1                                        NOUPDATEAUXVAR   INTEGER                             0 --                                                                 
 MODEL/GHB-1                                        BOUND            DOUBLE                              0 --                                                                 
 MODEL/GHB-1                                        CONDINPUT        DOUBLE                              0 --                                                                 
 MODEL/GHB-1                                        HCOF             DOUBLE                              1 --                                                                 
 MODEL/GHB-1                                        RHS              DOUBLE                              1 --                                                                 
 MODEL/GHB-1                                        SIMVALS          DOUBLE                              1 --                                                                 
 MODEL/GHB-1                                        SIMTOMVR         DOUBLE                              0 --                                                                 
 MODEL/GHB-1                                        AUXVAR           DOUBLE                              0 --                                                                 
 MODEL/GHB-1                                        BOUNDNAME        STRING LEN=40                       0 --                                                                 
 MODEL/GHB-1                                        BOUNDNAME_CST    STRING LEN=40                       0 --                                                                 
 MODEL/GHB-1                                        CELLID           INTEGER                             3 __INPUT__/MODEL/GHB-1/CELLID                                       
 MODEL/GHB-1                                        BOUNDNAME_IDM    STRING LEN=40                       0 __INPUT__/MODEL/GHB-1/BOUNDNAME                                    
 MODEL/GHB-1                                        AUXVAR_IDM       DOUBLE                              0 __INPUT__/MODEL/GHB-1/AUXVAR                                       
 MODEL/GHB-1                                        BHEAD            DOUBLE                              1 __INPUT__/MODEL/GHB-1/BHEAD                                        
 MODEL/GHB-1                                        COND             DOUBLE                              1 __INPUT__/MODEL/GHB-1/COND                                         
 MODEL/RCH-1                                        NODELIST         INTEGER                             1 --                                                                 
 MODEL/RCH-1                                        NOUPDATEAUXVAR   INTEGER                             0 --                                                                 
 MODEL/RCH-1                                        BOUND            DOUBLE                              0 --                                                                 
 MODEL/RCH-1                                        CONDINPUT        DOUBLE                              0 --                                                                 
 MODEL/RCH-1                                        HCOF             DOUBLE                              1 --                                                                 
 MODEL/RCH-1                                        RHS              DOUBLE                              1 --                                                                 
 MODEL/RCH-1                                        SIMVALS          DOUBLE                              1 --                                                                 
 MODEL/RCH-1                                        SIMTOMVR         DOUBLE                              0 --                                                                 
 MODEL/RCH-1                                        AUXVAR           DOUBLE                              0 --                                                                 
 MODEL/RCH-1                                        BOUNDNAME        STRING LEN=40                       0 --                                                                 
 MODEL/RCH-1                                        BOUNDNAME_CST    STRING LEN=40                       0 --                                                                 
 MODEL/RCH-1                                        CELLID           INTEGER                             3 __INPUT__/MODEL/RCH-1/CELLID                                       
 MODEL/RCH-1                                        BOUNDNAME_IDM    STRING LEN=40                       0 __INPUT__/MODEL/RCH-1/BOUNDNAME                                    
 MODEL/RCH-1                                        AUXVAR_IDM       DOUBLE                              0 __INPUT__/MODEL/RCH-1/AUXVAR                                       
 MODEL/RCH-1                                        RECHARGE         DOUBLE                              1 __INPUT__/MODEL/RCH-1/RECHARGE                                     
 SLN_1/IMSLINEAR                                    DVCLOSE          DOUBLE                              1 --                                                                 
 SLN_1/IMSLINEAR                                    RCLOSE           DOUBLE                              1 --                                                                 
 SLN_1/IMSLINEAR                                    ICNVGOPT         INTEGER                             1 --                                                                 
 SLN_1/IMSLINEAR                                    ITER1            INTEGER                             1 --                                                                 
 SLN_1/IMSLINEAR                                    ILINMETH         INTEGER                             1 --                                                                 
 SLN_1/IMSLINEAR                                    ISCL             INTEGER                             1 --                                                                 
 SLN_1/IMSLINEAR                                    IORD             INTEGER                             1 --                                                                 
 SLN_1/IMSLINEAR                                    NORTH            INTEGER                             1 --                                                                 
 SLN_1/IMSLINEAR                                    RELAX            DOUBLE                              1 --                                                                 
 SLN_1/IMSLINEAR                                    LEVEL            INTEGER                             1 --                                                                 
 SLN_1/IMSLINEAR                                    DROPTOL          DOUBLE                              1 --                                                                 
 SLN_1/IMSLINEAR                                    IDFPARAM         INTEGER                             1 --                                                                 
 SLN_1/IMSLINEAR                                    NJA              INTEGER                             1 --                                                                 
 SLN_1/IMSLINEAR                                    IOUT             INTEGER                             1 --                                                                 
 SLN_1/IMSLINEAR                                    IPC              INTEGER                             1 --                                                                 
 SLN_1/IMSLINEAR                                    IACPC            INTEGER                             1 --                                                                 
 SLN_1/IMSLINEAR                                    NITERC           INTEGER                             1 --                                                                 
 SLN_1/IMSLINEAR                                    NIABCGS          INTEGER                             1 --                                                                 
 SLN_1/IMSLINEAR                                    NIAPC            INTEGER                             1 --                                                                 
 SLN_1/IMSLINEAR                                    NJAPC            INTEGER                             1 --                                                                 
 SLN_1/IMSLINEAR                                    EPFACT           DOUBLE                              1 --                                                                 
 SLN_1/IMSLINEAR                                    L2NORM0          DOUBLE                              1 --                                                                 
 SLN_1/IMSLINEAR                                    NJLU             INTEGER                             1 --                                                                 
 SLN_1/IMSLINEAR                                    NJW              INTEGER                             1 --                                                                 
 SLN_1/IMSLINEAR                                    NWLU             INTEGER                             1 --                                                                 
 SLN_1/IMSLINEAR                                    DSCALE           DOUBLE                              1 --                                                                 
 SLN_1/IMSLINEAR                                    DSCALE2          DOUBLE                              1 --                                                                 
 SLN_1/IMSLINEAR                                    IAPC             INTEGER                             6 --                                                                 
 SLN_1/IMSLINEAR                                    JAPC             INTEGER                            85 --                                                                 
 SLN_1/IMSLINEAR                                    APC              DOUBLE                             85 --                                                                 
 SLN_1/IMSLINEAR                                    IW               INTEGER                             5 --                                                                 
 SLN_1/IMSLINEAR                                    W                DOUBLE                              5 --                                                                 
 SLN_1/IMSLINEAR                                    JLU              INTEGER                            85 --                                                                 
 SLN_1/IMSLINEAR                                    JW               INTEGER                            10 --                                                                 
 SLN_1/IMSLINEAR                                    WLU              DOUBLE                              6 --                                                                 
 SLN_1/IMSLINEAR                                    LORDER           INTEGER                             1 --                                                                 
 SLN_1/IMSLINEAR                                    IORDER           INTEGER                             1 --                                                                 
 SLN_1/IMSLINEAR                                    IARO             INTEGER                             2 --                                                                 
 SLN_1/IMSLINEAR                                    JARO             INTEGER                             1 --                                                                 
 SLN_1/IMSLINEAR                                    ARO              DOUBLE                              1 --                                                                 
 SLN_1/IMSLINEAR                                    ID               INTEGER                             5 --                                                                 
 SLN_1/IMSLINEAR                                    D                DOUBLE                              5 --                                                                 
 SLN_1/IMSLINEAR                                    P                DOUBLE                              5 --                                                                 
 SLN_1/IMSLINEAR                                    Q                DOUBLE                              5 --                                                                 
 SLN_1/IMSLINEAR                                    Z                DOUBLE                              5 --                                                                 
 SLN_1/IMSLINEAR                                    T                DOUBLE                              5 --                                                                 
 SLN_1/IMSLINEAR                                    V                DOUBLE                              5 --                                                                 
 SLN_1/IMSLINEAR                                    DHAT             DOUBLE                              5 --                                                                 
 SLN_1/IMSLINEAR                                    PHAT             DOUBLE                              5 --                                                                 
 SLN_1/IMSLINEAR                                    QHAT             DOUBLE                              5 --                                                                 
 -----------------------------------------------------------------------------------------------------------------------------------------------------------------------------



 MEMORY MANAGER TOTAL STORAGE BY DATA TYPE, IN KILOBYTES
 -------------------------------
                    ALLOCATED   
 DATA TYPE           MEMORY     
 -------------------------------
 Character        8.7860000     
 Logical          4.40000000E-02
 Integer          28.216000     
 Real             22.648000     
 -------------------------------
 Total            59.694000     
 Virtual          0.0000000     
 -------------------------------


 
 Run end date and time (yyyy/mm/dd hh:mm:ss): 2025/02/11 13:56:48
 Elapsed run time:  9.263 Seconds
 Normal termination of simulation.
