                                   MODFLOW 6
                U.S. GEOLOGICAL SURVEY MODULAR HYDROLOGIC MODEL
                          GROUNDWATER FLOW MODEL (GWF)
                            VERSION 6.5.0 05/23/2024

   MODFLOW 6 compiled Jun 14 2024 13:48:17 with Intel(R) Fortran Intel(R) 64
  Compiler Classic for applications running on Intel(R) 64, Version 2021.12.0
                             Build 20240222_000000

This software has been approved for release by the U.S. Geological 
Survey (USGS). Although the software has been subjected to rigorous 
review, the USGS reserves the right to update the software as needed 
pursuant to further analysis and review. No warranty, expressed or 
implied, is made by the USGS or the U.S. Government as to the 
functionality of the software and related material nor shall the 
fact of release constitute any such warranty. Furthermore, the 
software is released on condition that neither the USGS nor the U.S. 
Government shall be held liable for any damages resulting from its 
authorized or unauthorized use. Also refer to the USGS Water 
Resources Software User Rights Notice for complete use, copyright, 
and distribution information.


As a work of the United States Government, this USGS product is 
in the public domain within the United States. You can copy, 
modify, distribute, and perform the work, even for commercial 
purposes, all without asking permission. Additionally, USGS 
waives copyright and related rights in the work worldwide 
through CC0 1.0 Universal Public Domain Dedication 
(https://creativecommons.org/publicdomain/zero/1.0/).

The following GNU Lesser General Public License (LGPL) libraries
are used in this USGS product:

    SPARSKIT version 2.0
      ilut, luson, and qsplit 
      (https://www-users.cse.umn.edu/~saad/software/SPARSKIT/)

    RCM - Reverse Cuthill McKee Ordering
      (https://people.math.sc.edu/Burkardt/f_src/rcm/rcm.html)

    BLAS - Basic Linear Algebra Subprograms Level 1
      (https://people.math.sc.edu/Burkardt/f_src/blas1_d/blas1_d.html)

    SPARSEKIT - Sparse Matrix Utility Package
      amux, dperm, dvperm, rperm, and cperm
      (https://people.sc.fsu.edu/~jburkardt/f77_src/sparsekit/sparsekit.html)

The following BSD-3 License libraries are used in this USGS product:

    Modern Fortran DAG Library
      Copyright (c) 2018, Jacob Williams
      All rights reserved.
      (https://github.com/jacobwilliams/daglib)

MODFLOW 6 compiler options: /nologo /O2 /fpp /warn:declarations /warn:unused
/fpe:0 /module:obj_temp\mf6core\x64\Release\
/object:obj_temp\mf6core\x64\Release\
/Fdobj_temp\mf6core\x64\Release\vc170.pdb /libs:static /threads /c
"/Qlocation,link,C:\Program Files\Microsoft Visual
Studio\2022\Community\VC\Tools\MSVC\14.40.33807\bin\HostX64\x64" /Qm64

System command used to initiate simulation:
d:\werkmap\LHM_coupling\.pixi\envs\default\python.exe -X frozen_modules=off c:\Users\kok_hk\.vscode\extensions\ms-python.debugpy-2024.12.0-win32-x64\bundled\libs\debugpy\adapter/../..\debugpy\launcher/../..\debugpy --connect 127.0.0.1:63127 --configure-qt none --adapter-access-token 1b0f30351ea21d6dc81e0dd5c6f03d0019ba55daf0366e64370978212998db45 D:\werkmap\prototype_metaswap\MegaSWAP\run.py

MODFLOW was compiled using uniform precision.

Real Variables
  KIND: 8
  TINY (smallest non-zero value):    2.225074-308
  HUGE (largest value):    1.797693+308
  PRECISION: 15
  SIZE IN BITS: 64

Integer Variables
  KIND: 4
  HUGE (largest value): 2147483647
  SIZE IN BITS: 32

Long Integer Variables
  KIND: 8
  HUGE (largest value): 9223372036854775807
  SIZE IN BITS: 64

Logical Variables
  KIND: 4
  SIZE IN BITS: 32
 
 NAMEFILE OPTIONS:
 END NAMEFILE OPTIONS:

 DIS -- STRUCTURED GRID DISCRETIZATION PACKAGE, VERSION 2 : 3/27/2014 - INPUT READ FROM MEMPATH: __INPUT__/MODEL/DIS                               


 NPF -- NODE PROPERTY FLOW PACKAGE, VERSION 1, 3/30/2015 INPUT READ FROM MEMPATH: __INPUT__/MODEL/NPF                               


 IC -- Initial Conditions Package, Version 8, 3/28/2015 input read from mempath: __INPUT__/MODEL/IC                                


 Setting Discretization Options
    Model length unit [0=UND, 1=FEET, 2=METERS, 3=CENTIMETERS] set as 2
 End Setting Discretization Options

 Setting Discretization Dimensions
    NLAY = 5
    NROW = 1
    NCOL = 1
 End Setting Discretization Dimensions

 Setting Discretization Griddata
    DELR set from input file
    DELC set from input file
    TOP set from input file
    BOTM set from input file
 End Setting Discretization Griddata

 Setting NPF Options
    Cell-by-cell flow information will be saved to binary file whenever ICBCFL is not zero.
    Saturation will be written to DATA-SAT in budget file when requested.
 End Setting NPF Options

 Setting NPF Griddata
    ICELLTYPE set from input file
    K set from input file
    K33 not provided.  Setting K33 = K.
    K22 not provided.  Setting K22 = K.
 End Setting NPF Griddata


 WEL   -- WEL PACKAGE, VERSION 8, 2/22/2014 INPUT READ FROM MEMPATH: __INPUT__/MODEL/WEL-1                             

 PROCESSING WEL BASE OPTIONS
 END OF WEL BASE OPTIONS

 PROCESSING WEL OPTIONS
 END OF WEL OPTIONS

 PROCESSING WEL BASE DIMENSIONS
    MAXBOUND =       1
 END OF WEL BASE DIMENSIONS

 GHB   -- GHB PACKAGE, VERSION 8, 2/22/2014 INPUT READ FROM MEMPATH: __INPUT__/MODEL/GHB-1                             

 PROCESSING GHB BASE OPTIONS
    FLOWS WILL BE SAVED TO BUDGET FILE SPECIFIED IN OUTPUT CONTROL
    LISTS OF GHB CELLS WILL BE PRINTED.
    GHB FLOWS WILL BE PRINTED TO LISTING FILE.
 END OF GHB BASE OPTIONS

 PROCESSING GHB OPTIONS
 END OF GHB OPTIONS

 PROCESSING GHB BASE DIMENSIONS
    MAXBOUND =       1
 END OF GHB BASE DIMENSIONS

 RCH   -- RCH PACKAGE, VERSION 8, 2/22/2014 INPUT READ FROM MEMPATH: __INPUT__/MODEL/RCH-1                             

 PROCESSING RCH BASE OPTIONS
 END OF RCH BASE OPTIONS

 PROCESSING RCH OPTIONS
 END OF RCH OPTIONS

 PROCESSING RCH BASE DIMENSIONS
    MAXBOUND =       1
 END OF RCH BASE DIMENSIONS
    STRT set from input file

 STO -- STORAGE PACKAGE, VERSION 1, 5/19/2014 INPUT READ FROM UNIT 1007


 PROCESSING STORAGE OPTIONS
    CELL-BY-CELL FLOW INFORMATION WILL BE SAVED TO BINARY FILE WHENEVER ICBCFL IS NOT ZERO.
    STORAGECOEFFICIENT OPTION:
 Read storage coefficient rather than specific storage
 END OF STORAGE OPTIONS
 PROCESSING GRIDDATA

                 ICONVERT = 0

         SPECIFIC STORAGE =  0.2000000     FOR LAYER 1

         SPECIFIC STORAGE =  0.1000000E-02 FOR LAYER 2

         SPECIFIC STORAGE =  0.1000000E-02 FOR LAYER 3

         SPECIFIC STORAGE =  0.1000000E-02 FOR LAYER 4

         SPECIFIC STORAGE =  0.1000000E-02 FOR LAYER 5
 END PROCESSING GRIDDATA
    BINARY GRID INFORMATION WILL BE WRITTEN TO:
      UNIT NUMBER: 1016
      FILE NAME: model.dis.grb

 OPENED model.dis.grb
 FILE TYPE:DATA(BINARY)   UNIT 1016   STATUS:REPLACE             
 FORMAT:UNFORMATTED            ACCESS:STREAM              
 ACTION:READWRITE           

      THE LAST TIME STEP WILL BE PRINTED
      THE LAST TIME STEP WILL BE PRINTED

 PROCESSING OC OPTIONS

    HEAD INFORMATION WILL BE WRITTEN TO:
      UNIT NUMBER: 1017
      FILE NAME: flow.hds

 OPENED flow.hds
 FILE TYPE:DATA(BINARY)   UNIT 1017   STATUS:REPLACE             
 FORMAT:UNFORMATTED            ACCESS:STREAM              
 ACTION:READWRITE           

    BUDGET INFORMATION WILL BE WRITTEN TO:
      UNIT NUMBER: 1018
      FILE NAME: flow.cbc

 OPENED flow.cbc
 FILE TYPE:DATA(BINARY)   UNIT 1018   STATUS:REPLACE             
 FORMAT:UNFORMATTED            ACCESS:STREAM              
 ACTION:READWRITE           

 END OF OC OPTIONS

start timestep kper="1" kstp="1" mode="normal"


 BEGIN READING OUTPUT CONTROL FOR STRESS PERIOD 1
      ALL TIME STEPS WILL BE SAVED
      ALL TIME STEPS WILL BE SAVED

 END READING OUTPUT CONTROL FOR STRESS PERIOD 1


 PROCESSING STORAGE PERIOD DATA
 END PROCESSING STORAGE PERIOD DATA


 STRESS PERIOD 1 IS TRANSIENT

 ----------------------------------
  GHB NO.    LAYER    ROW     COL  
 ----------------------------------
     1         5       1       1   
 ----------------------------------


 UBDSV1 SAVING           STO-SS ON UNIT   1018 AT TIME STEP      1, STRESS PERIOD      1
 UBDSV1 SAVING     FLOW-JA-FACE ON UNIT   1018 AT TIME STEP      1, STRESS PERIOD      1
 UBDSV06 SAVING         DATA-SAT IN MODEL MODEL            PACKAGE NPF             CONNECTED TO MODEL MODEL            PACKAGE NPF              ON UNIT   1018 AT TIME STEP      1, STRESS PERIOD      1
 UBDSV06 SAVING              GHB IN MODEL MODEL            PACKAGE MODEL           CONNECTED TO MODEL MODEL            PACKAGE GHB-1            ON UNIT   1018 AT TIME STEP      1, STRESS PERIOD      1

 GHB PACKAGE (GHB-1) FLOW RATES   PERIOD      1   STEP        1
 -----------------------------------------------
   NUMBER   CELLID                    RATE      
 -----------------------------------------------
     1      (5,1,1)              -1.72499645E-03
 -----------------------------------------------




 HEAD WILL BE SAVED ON UNIT 1017 AT END OF TIME STEP    1, STRESS PERIOD    1


  VOLUME BUDGET FOR ENTIRE MODEL AT END OF TIME STEP    1, STRESS PERIOD   1
  ---------------------------------------------------------------------------------------------------

     CUMULATIVE VOLUME      L**3       RATES FOR THIS TIME STEP      L**3/T          PACKAGE NAME    
     ------------------                 ------------------------                     ----------------

           IN:                                      IN:
           ---                                      ---
              STO-SS =           0.0000                STO-SS =           0.0000     STORAGE                          
                 WEL =           0.0000                   WEL =           0.0000     WEL-1                            
                 GHB =           0.0000                   GHB =           0.0000     GHB-1                            
                 RCH =       1.7592E-02                   RCH =       1.7592E-02     RCH-1                            

            TOTAL IN =       1.7592E-02              TOTAL IN =       1.7592E-02

          OUT:                                     OUT:
          ----                                     ----
              STO-SS =       1.5867E-02                STO-SS =       1.5867E-02     STORAGE                          
                 WEL =           0.0000                   WEL =           0.0000     WEL-1                            
                 GHB =       1.7250E-03                   GHB =       1.7250E-03     GHB-1                            
                 RCH =           0.0000                   RCH =           0.0000     RCH-1                            

           TOTAL OUT =       1.7592E-02             TOTAL OUT =       1.7592E-02

            IN - OUT =       3.5395E-14              IN - OUT =       3.5395E-14

 PERCENT DISCREPANCY =           0.00     PERCENT DISCREPANCY =           0.00




         TIME SUMMARY AT END OF TIME STEP    1 IN STRESS PERIOD    1
                    SECONDS     MINUTES      HOURS       DAYS        YEARS
                    -----------------------------------------------------------
   TIME STEP LENGTH  86400.      1440.0      24.000      1.0000     2.73785E-03
 STRESS PERIOD TIME  86400.      1440.0      24.000      1.0000     2.73785E-03
         TOTAL TIME  86400.      1440.0      24.000      1.0000     2.73785E-03


end timestep


start timestep kper="2" kstp="1" mode="normal"


 END OF FILE DETECTED IN OUTPUT CONTROL.
 CURRENT OUTPUT CONTROL SETTINGS WILL BE 
 REPEATED UNTIL THE END OF THE SIMULATION.

 OUTPUT CONTROL FOR STRESS PERIOD 2 IS REPEATED USING SETTINGS FROM A PREVIOUS STRESS PERIOD.


 STRESS PERIOD 2 IS TRANSIENT

 UBDSV1 SAVING           STO-SS ON UNIT   1018 AT TIME STEP      1, STRESS PERIOD      2
 UBDSV1 SAVING     FLOW-JA-FACE ON UNIT   1018 AT TIME STEP      1, STRESS PERIOD      2
 UBDSV06 SAVING         DATA-SAT IN MODEL MODEL            PACKAGE NPF             CONNECTED TO MODEL MODEL            PACKAGE NPF              ON UNIT   1018 AT TIME STEP      1, STRESS PERIOD      2
 UBDSV06 SAVING              GHB IN MODEL MODEL            PACKAGE MODEL           CONNECTED TO MODEL MODEL            PACKAGE GHB-1            ON UNIT   1018 AT TIME STEP      1, STRESS PERIOD      2

 GHB PACKAGE (GHB-1) FLOW RATES   PERIOD      2   STEP        1
 -----------------------------------------------
   NUMBER   CELLID                    RATE      
 -----------------------------------------------
     1      (5,1,1)              -2.15948423E-03
 -----------------------------------------------




 HEAD WILL BE SAVED ON UNIT 1017 AT END OF TIME STEP    1, STRESS PERIOD    2


  VOLUME BUDGET FOR ENTIRE MODEL AT END OF TIME STEP    1, STRESS PERIOD   2
  ---------------------------------------------------------------------------------------------------

     CUMULATIVE VOLUME      L**3       RATES FOR THIS TIME STEP      L**3/T          PACKAGE NAME    
     ------------------                 ------------------------                     ----------------

           IN:                                      IN:
           ---                                      ---
              STO-SS =           0.0000                STO-SS =           0.0000     STORAGE                          
                 WEL =           0.0000                   WEL =           0.0000     WEL-1                            
                 GHB =           0.0000                   GHB =           0.0000     GHB-1                            
                 RCH =       3.5174E-02                   RCH =       1.7583E-02     RCH-1                            

            TOTAL IN =       3.5174E-02              TOTAL IN =       1.7583E-02

          OUT:                                     OUT:
          ----                                     ----
              STO-SS =       3.1290E-02                STO-SS =       1.5423E-02     STORAGE                          
                 WEL =           0.0000                   WEL =           0.0000     WEL-1                            
                 GHB =       3.8845E-03                   GHB =       2.1595E-03     GHB-1                            
                 RCH =           0.0000                   RCH =           0.0000     RCH-1                            

           TOTAL OUT =       3.5174E-02             TOTAL OUT =       1.7583E-02

            IN - OUT =       8.6147E-10              IN - OUT =       8.6143E-10

 PERCENT DISCREPANCY =           0.00     PERCENT DISCREPANCY =           0.00




         TIME SUMMARY AT END OF TIME STEP    1 IN STRESS PERIOD    2
                    SECONDS     MINUTES      HOURS       DAYS        YEARS
                    -----------------------------------------------------------
   TIME STEP LENGTH  86400.      1440.0      24.000      1.0000     2.73785E-03
 STRESS PERIOD TIME  86400.      1440.0      24.000      1.0000     2.73785E-03
         TOTAL TIME 1.72800E+05  2880.0      48.000      2.0000     5.47570E-03


end timestep


start timestep kper="3" kstp="1" mode="normal"


 OUTPUT CONTROL FOR STRESS PERIOD 3 IS REPEATED USING SETTINGS FROM A PREVIOUS STRESS PERIOD.


 STRESS PERIOD 3 IS TRANSIENT

 UBDSV1 SAVING           STO-SS ON UNIT   1018 AT TIME STEP      1, STRESS PERIOD      3
 UBDSV1 SAVING     FLOW-JA-FACE ON UNIT   1018 AT TIME STEP      1, STRESS PERIOD      3
 UBDSV06 SAVING         DATA-SAT IN MODEL MODEL            PACKAGE NPF             CONNECTED TO MODEL MODEL            PACKAGE NPF              ON UNIT   1018 AT TIME STEP      1, STRESS PERIOD      3
 UBDSV06 SAVING              GHB IN MODEL MODEL            PACKAGE MODEL           CONNECTED TO MODEL MODEL            PACKAGE GHB-1            ON UNIT   1018 AT TIME STEP      1, STRESS PERIOD      3

 GHB PACKAGE (GHB-1) FLOW RATES   PERIOD      3   STEP        1
 -----------------------------------------------
   NUMBER   CELLID                    RATE      
 -----------------------------------------------
     1      (5,1,1)              -2.47439490E-03
 -----------------------------------------------




 HEAD WILL BE SAVED ON UNIT 1017 AT END OF TIME STEP    1, STRESS PERIOD    3


  VOLUME BUDGET FOR ENTIRE MODEL AT END OF TIME STEP    1, STRESS PERIOD   3
  ---------------------------------------------------------------------------------------------------

     CUMULATIVE VOLUME      L**3       RATES FOR THIS TIME STEP      L**3/T          PACKAGE NAME    
     ------------------                 ------------------------                     ----------------

           IN:                                      IN:
           ---                                      ---
              STO-SS =           0.0000                STO-SS =           0.0000     STORAGE                          
                 WEL =           0.0000                   WEL =           0.0000     WEL-1                            
                 GHB =           0.0000                   GHB =           0.0000     GHB-1                            
                 RCH =       5.2771E-02                   RCH =       1.7596E-02     RCH-1                            

            TOTAL IN =       5.2771E-02              TOTAL IN =       1.7596E-02

          OUT:                                     OUT:
          ----                                     ----
              STO-SS =       4.6412E-02                STO-SS =       1.5122E-02     STORAGE                          
                 WEL =           0.0000                   WEL =           0.0000     WEL-1                            
                 GHB =       6.3589E-03                   GHB =       2.4744E-03     GHB-1                            
                 RCH =           0.0000                   RCH =           0.0000     RCH-1                            

           TOTAL OUT =       5.2771E-02             TOTAL OUT =       1.7596E-02

            IN - OUT =       2.4305E-09              IN - OUT =       1.5691E-09

 PERCENT DISCREPANCY =           0.00     PERCENT DISCREPANCY =           0.00




         TIME SUMMARY AT END OF TIME STEP    1 IN STRESS PERIOD    3
                    SECONDS     MINUTES      HOURS       DAYS        YEARS
                    -----------------------------------------------------------
   TIME STEP LENGTH  86400.      1440.0      24.000      1.0000     2.73785E-03
 STRESS PERIOD TIME  86400.      1440.0      24.000      1.0000     2.73785E-03
         TOTAL TIME 2.59200E+05  4320.0      72.000      3.0000     8.21355E-03


end timestep


start timestep kper="4" kstp="1" mode="normal"


 OUTPUT CONTROL FOR STRESS PERIOD 4 IS REPEATED USING SETTINGS FROM A PREVIOUS STRESS PERIOD.


 STRESS PERIOD 4 IS TRANSIENT

 UBDSV1 SAVING           STO-SS ON UNIT   1018 AT TIME STEP      1, STRESS PERIOD      4
 UBDSV1 SAVING     FLOW-JA-FACE ON UNIT   1018 AT TIME STEP      1, STRESS PERIOD      4
 UBDSV06 SAVING         DATA-SAT IN MODEL MODEL            PACKAGE NPF             CONNECTED TO MODEL MODEL            PACKAGE NPF              ON UNIT   1018 AT TIME STEP      1, STRESS PERIOD      4
 UBDSV06 SAVING              GHB IN MODEL MODEL            PACKAGE MODEL           CONNECTED TO MODEL MODEL            PACKAGE GHB-1            ON UNIT   1018 AT TIME STEP      1, STRESS PERIOD      4

 GHB PACKAGE (GHB-1) FLOW RATES   PERIOD      4   STEP        1
 -----------------------------------------------
   NUMBER   CELLID                    RATE      
 -----------------------------------------------
     1      (5,1,1)              -2.79566034E-03
 -----------------------------------------------




 HEAD WILL BE SAVED ON UNIT 1017 AT END OF TIME STEP    1, STRESS PERIOD    4


  VOLUME BUDGET FOR ENTIRE MODEL AT END OF TIME STEP    1, STRESS PERIOD   4
  ---------------------------------------------------------------------------------------------------

     CUMULATIVE VOLUME      L**3       RATES FOR THIS TIME STEP      L**3/T          PACKAGE NAME    
     ------------------                 ------------------------                     ----------------

           IN:                                      IN:
           ---                                      ---
              STO-SS =           0.0000                STO-SS =           0.0000     STORAGE                          
                 WEL =           0.0000                   WEL =           0.0000     WEL-1                            
                 GHB =           0.0000                   GHB =           0.0000     GHB-1                            
                 RCH =       7.0390E-02                   RCH =       1.7620E-02     RCH-1                            

            TOTAL IN =       7.0390E-02              TOTAL IN =       1.7620E-02

          OUT:                                     OUT:
          ----                                     ----
              STO-SS =       6.1236E-02                STO-SS =       1.4824E-02     STORAGE                          
                 WEL =           0.0000                   WEL =           0.0000     WEL-1                            
                 GHB =       9.1545E-03                   GHB =       2.7957E-03     GHB-1                            
                 RCH =           0.0000                   RCH =           0.0000     RCH-1                            

           TOTAL OUT =       7.0390E-02             TOTAL OUT =       1.7620E-02

            IN - OUT =       4.7984E-09              IN - OUT =       2.3678E-09

 PERCENT DISCREPANCY =           0.00     PERCENT DISCREPANCY =           0.00




         TIME SUMMARY AT END OF TIME STEP    1 IN STRESS PERIOD    4
                    SECONDS     MINUTES      HOURS       DAYS        YEARS
                    -----------------------------------------------------------
   TIME STEP LENGTH  86400.      1440.0      24.000      1.0000     2.73785E-03
 STRESS PERIOD TIME  86400.      1440.0      24.000      1.0000     2.73785E-03
         TOTAL TIME 3.45600E+05  5760.0      96.000      4.0000     1.09514E-02


end timestep


start timestep kper="5" kstp="1" mode="normal"


 OUTPUT CONTROL FOR STRESS PERIOD 5 IS REPEATED USING SETTINGS FROM A PREVIOUS STRESS PERIOD.


 STRESS PERIOD 5 IS TRANSIENT

 UBDSV1 SAVING           STO-SS ON UNIT   1018 AT TIME STEP      1, STRESS PERIOD      5
 UBDSV1 SAVING     FLOW-JA-FACE ON UNIT   1018 AT TIME STEP      1, STRESS PERIOD      5
 UBDSV06 SAVING         DATA-SAT IN MODEL MODEL            PACKAGE NPF             CONNECTED TO MODEL MODEL            PACKAGE NPF              ON UNIT   1018 AT TIME STEP      1, STRESS PERIOD      5
 UBDSV06 SAVING              GHB IN MODEL MODEL            PACKAGE MODEL           CONNECTED TO MODEL MODEL            PACKAGE GHB-1            ON UNIT   1018 AT TIME STEP      1, STRESS PERIOD      5

 GHB PACKAGE (GHB-1) FLOW RATES   PERIOD      5   STEP        1
 -----------------------------------------------
   NUMBER   CELLID                    RATE      
 -----------------------------------------------
     1      (5,1,1)              -3.13029966E-03
 -----------------------------------------------




 HEAD WILL BE SAVED ON UNIT 1017 AT END OF TIME STEP    1, STRESS PERIOD    5


  VOLUME BUDGET FOR ENTIRE MODEL AT END OF TIME STEP    1, STRESS PERIOD   5
  ---------------------------------------------------------------------------------------------------

     CUMULATIVE VOLUME      L**3       RATES FOR THIS TIME STEP      L**3/T          PACKAGE NAME    
     ------------------                 ------------------------                     ----------------

           IN:                                      IN:
           ---                                      ---
              STO-SS =           0.0000                STO-SS =           0.0000     STORAGE                          
                 WEL =           0.0000                   WEL =           0.0000     WEL-1                            
                 GHB =           0.0000                   GHB =           0.0000     GHB-1                            
                 RCH =       8.8046E-02                   RCH =       1.7656E-02     RCH-1                            

            TOTAL IN =       8.8046E-02              TOTAL IN =       1.7656E-02

          OUT:                                     OUT:
          ----                                     ----
              STO-SS =       7.5761E-02                STO-SS =       1.4525E-02     STORAGE                          
                 WEL =           0.0000                   WEL =           0.0000     WEL-1                            
                 GHB =       1.2285E-02                   GHB =       3.1303E-03     GHB-1                            
                 RCH =           0.0000                   RCH =           0.0000     RCH-1                            

           TOTAL OUT =       8.8046E-02             TOTAL OUT =       1.7656E-02

            IN - OUT =       8.2296E-09              IN - OUT =       3.4312E-09

 PERCENT DISCREPANCY =           0.00     PERCENT DISCREPANCY =           0.00




         TIME SUMMARY AT END OF TIME STEP    1 IN STRESS PERIOD    5
                    SECONDS     MINUTES      HOURS       DAYS        YEARS
                    -----------------------------------------------------------
   TIME STEP LENGTH  86400.      1440.0      24.000      1.0000     2.73785E-03
 STRESS PERIOD TIME  86400.      1440.0      24.000      1.0000     2.73785E-03
         TOTAL TIME 4.32000E+05  7200.0      120.00      5.0000     1.36893E-02


end timestep


start timestep kper="6" kstp="1" mode="normal"


 OUTPUT CONTROL FOR STRESS PERIOD 6 IS REPEATED USING SETTINGS FROM A PREVIOUS STRESS PERIOD.


 STRESS PERIOD 6 IS TRANSIENT

 UBDSV1 SAVING           STO-SS ON UNIT   1018 AT TIME STEP      1, STRESS PERIOD      6
 UBDSV1 SAVING     FLOW-JA-FACE ON UNIT   1018 AT TIME STEP      1, STRESS PERIOD      6
 UBDSV06 SAVING         DATA-SAT IN MODEL MODEL            PACKAGE NPF             CONNECTED TO MODEL MODEL            PACKAGE NPF              ON UNIT   1018 AT TIME STEP      1, STRESS PERIOD      6
 UBDSV06 SAVING              GHB IN MODEL MODEL            PACKAGE MODEL           CONNECTED TO MODEL MODEL            PACKAGE GHB-1            ON UNIT   1018 AT TIME STEP      1, STRESS PERIOD      6

 GHB PACKAGE (GHB-1) FLOW RATES   PERIOD      6   STEP        1
 -----------------------------------------------
   NUMBER   CELLID                    RATE      
 -----------------------------------------------
     1      (5,1,1)              -3.47644881E-03
 -----------------------------------------------




 HEAD WILL BE SAVED ON UNIT 1017 AT END OF TIME STEP    1, STRESS PERIOD    6


  VOLUME BUDGET FOR ENTIRE MODEL AT END OF TIME STEP    1, STRESS PERIOD   6
  ---------------------------------------------------------------------------------------------------

     CUMULATIVE VOLUME      L**3       RATES FOR THIS TIME STEP      L**3/T          PACKAGE NAME    
     ------------------                 ------------------------                     ----------------

           IN:                                      IN:
           ---                                      ---
              STO-SS =           0.0000                STO-SS =           0.0000     STORAGE                          
                 WEL =           0.0000                   WEL =           0.0000     WEL-1                            
                 GHB =           0.0000                   GHB =           0.0000     GHB-1                            
                 RCH =           0.1058                   RCH =       1.7705E-02     RCH-1                            

            TOTAL IN =           0.1058              TOTAL IN =       1.7705E-02

          OUT:                                     OUT:
          ----                                     ----
              STO-SS =       8.9990E-02                STO-SS =       1.4229E-02     STORAGE                          
                 WEL =           0.0000                   WEL =           0.0000     WEL-1                            
                 GHB =       1.5761E-02                   GHB =       3.4764E-03     GHB-1                            
                 RCH =           0.0000                   RCH =           0.0000     RCH-1                            

           TOTAL OUT =           0.1058             TOTAL OUT =       1.7705E-02

            IN - OUT =       1.2825E-08              IN - OUT =       4.5957E-09

 PERCENT DISCREPANCY =           0.00     PERCENT DISCREPANCY =           0.00




         TIME SUMMARY AT END OF TIME STEP    1 IN STRESS PERIOD    6
                    SECONDS     MINUTES      HOURS       DAYS        YEARS
                    -----------------------------------------------------------
   TIME STEP LENGTH  86400.      1440.0      24.000      1.0000     2.73785E-03
 STRESS PERIOD TIME  86400.      1440.0      24.000      1.0000     2.73785E-03
         TOTAL TIME 5.18400E+05  8640.0      144.00      6.0000     1.64271E-02


end timestep


start timestep kper="7" kstp="1" mode="normal"


 OUTPUT CONTROL FOR STRESS PERIOD 7 IS REPEATED USING SETTINGS FROM A PREVIOUS STRESS PERIOD.


 STRESS PERIOD 7 IS TRANSIENT

 UBDSV1 SAVING           STO-SS ON UNIT   1018 AT TIME STEP      1, STRESS PERIOD      7
 UBDSV1 SAVING     FLOW-JA-FACE ON UNIT   1018 AT TIME STEP      1, STRESS PERIOD      7
 UBDSV06 SAVING         DATA-SAT IN MODEL MODEL            PACKAGE NPF             CONNECTED TO MODEL MODEL            PACKAGE NPF              ON UNIT   1018 AT TIME STEP      1, STRESS PERIOD      7
 UBDSV06 SAVING              GHB IN MODEL MODEL            PACKAGE MODEL           CONNECTED TO MODEL MODEL            PACKAGE GHB-1            ON UNIT   1018 AT TIME STEP      1, STRESS PERIOD      7

 GHB PACKAGE (GHB-1) FLOW RATES   PERIOD      7   STEP        1
 -----------------------------------------------
   NUMBER   CELLID                    RATE      
 -----------------------------------------------
     1      (5,1,1)              -3.83164907E-03
 -----------------------------------------------




 HEAD WILL BE SAVED ON UNIT 1017 AT END OF TIME STEP    1, STRESS PERIOD    7


  VOLUME BUDGET FOR ENTIRE MODEL AT END OF TIME STEP    1, STRESS PERIOD   7
  ---------------------------------------------------------------------------------------------------

     CUMULATIVE VOLUME      L**3       RATES FOR THIS TIME STEP      L**3/T          PACKAGE NAME    
     ------------------                 ------------------------                     ----------------

           IN:                                      IN:
           ---                                      ---
              STO-SS =           0.0000                STO-SS =           0.0000     STORAGE                          
                 WEL =           0.0000                   WEL =           0.0000     WEL-1                            
                 GHB =           0.0000                   GHB =           0.0000     GHB-1                            
                 RCH =           0.1235                   RCH =       1.7771E-02     RCH-1                            

            TOTAL IN =           0.1235              TOTAL IN =       1.7771E-02

          OUT:                                     OUT:
          ----                                     ----
              STO-SS =           0.1039                STO-SS =       1.3939E-02     STORAGE                          
                 WEL =           0.0000                   WEL =           0.0000     WEL-1                            
                 GHB =       1.9593E-02                   GHB =       3.8316E-03     GHB-1                            
                 RCH =           0.0000                   RCH =           0.0000     RCH-1                            

           TOTAL OUT =           0.1235             TOTAL OUT =       1.7771E-02

            IN - OUT =       1.8261E-08              IN - OUT =       5.4359E-09

 PERCENT DISCREPANCY =           0.00     PERCENT DISCREPANCY =           0.00




         TIME SUMMARY AT END OF TIME STEP    1 IN STRESS PERIOD    7
                    SECONDS     MINUTES      HOURS       DAYS        YEARS
                    -----------------------------------------------------------
   TIME STEP LENGTH  86400.      1440.0      24.000      1.0000     2.73785E-03
 STRESS PERIOD TIME  86400.      1440.0      24.000      1.0000     2.73785E-03
         TOTAL TIME 6.04800E+05  10080.      168.00      7.0000     1.91650E-02


end timestep


start timestep kper="8" kstp="1" mode="normal"


 OUTPUT CONTROL FOR STRESS PERIOD 8 IS REPEATED USING SETTINGS FROM A PREVIOUS STRESS PERIOD.


 STRESS PERIOD 8 IS TRANSIENT

 UBDSV1 SAVING           STO-SS ON UNIT   1018 AT TIME STEP      1, STRESS PERIOD      8
 UBDSV1 SAVING     FLOW-JA-FACE ON UNIT   1018 AT TIME STEP      1, STRESS PERIOD      8
 UBDSV06 SAVING         DATA-SAT IN MODEL MODEL            PACKAGE NPF             CONNECTED TO MODEL MODEL            PACKAGE NPF              ON UNIT   1018 AT TIME STEP      1, STRESS PERIOD      8
 UBDSV06 SAVING              GHB IN MODEL MODEL            PACKAGE MODEL           CONNECTED TO MODEL MODEL            PACKAGE GHB-1            ON UNIT   1018 AT TIME STEP      1, STRESS PERIOD      8

 GHB PACKAGE (GHB-1) FLOW RATES   PERIOD      8   STEP        1
 -----------------------------------------------
   NUMBER   CELLID                    RATE      
 -----------------------------------------------
     1      (5,1,1)              -4.19345831E-03
 -----------------------------------------------




 HEAD WILL BE SAVED ON UNIT 1017 AT END OF TIME STEP    1, STRESS PERIOD    8


  VOLUME BUDGET FOR ENTIRE MODEL AT END OF TIME STEP    1, STRESS PERIOD   8
  ---------------------------------------------------------------------------------------------------

     CUMULATIVE VOLUME      L**3       RATES FOR THIS TIME STEP      L**3/T          PACKAGE NAME    
     ------------------                 ------------------------                     ----------------

           IN:                                      IN:
           ---                                      ---
              STO-SS =           0.0000                STO-SS =           0.0000     STORAGE                          
                 WEL =           0.0000                   WEL =           0.0000     WEL-1                            
                 GHB =           0.0000                   GHB =           0.0000     GHB-1                            
                 RCH =           0.1414                   RCH =       1.7854E-02     RCH-1                            

            TOTAL IN =           0.1414              TOTAL IN =       1.7854E-02

          OUT:                                     OUT:
          ----                                     ----
              STO-SS =           0.1176                STO-SS =       1.3660E-02     STORAGE                          
                 WEL =           0.0000                   WEL =           0.0000     WEL-1                            
                 GHB =       2.3786E-02                   GHB =       4.1935E-03     GHB-1                            
                 RCH =           0.0000                   RCH =           0.0000     RCH-1                            

           TOTAL OUT =           0.1414             TOTAL OUT =       1.7854E-02

            IN - OUT =       2.4208E-08              IN - OUT =       5.9466E-09

 PERCENT DISCREPANCY =           0.00     PERCENT DISCREPANCY =           0.00




         TIME SUMMARY AT END OF TIME STEP    1 IN STRESS PERIOD    8
                    SECONDS     MINUTES      HOURS       DAYS        YEARS
                    -----------------------------------------------------------
   TIME STEP LENGTH  86400.      1440.0      24.000      1.0000     2.73785E-03
 STRESS PERIOD TIME  86400.      1440.0      24.000      1.0000     2.73785E-03
         TOTAL TIME 6.91200E+05  11520.      192.00      8.0000     2.19028E-02


end timestep


start timestep kper="9" kstp="1" mode="normal"


 OUTPUT CONTROL FOR STRESS PERIOD 9 IS REPEATED USING SETTINGS FROM A PREVIOUS STRESS PERIOD.


 STRESS PERIOD 9 IS TRANSIENT

 UBDSV1 SAVING           STO-SS ON UNIT   1018 AT TIME STEP      1, STRESS PERIOD      9
 UBDSV1 SAVING     FLOW-JA-FACE ON UNIT   1018 AT TIME STEP      1, STRESS PERIOD      9
 UBDSV06 SAVING         DATA-SAT IN MODEL MODEL            PACKAGE NPF             CONNECTED TO MODEL MODEL            PACKAGE NPF              ON UNIT   1018 AT TIME STEP      1, STRESS PERIOD      9
 UBDSV06 SAVING              GHB IN MODEL MODEL            PACKAGE MODEL           CONNECTED TO MODEL MODEL            PACKAGE GHB-1            ON UNIT   1018 AT TIME STEP      1, STRESS PERIOD      9

 GHB PACKAGE (GHB-1) FLOW RATES   PERIOD      9   STEP        1
 -----------------------------------------------
   NUMBER   CELLID                    RATE      
 -----------------------------------------------
     1      (5,1,1)              -4.59878171E-03
 -----------------------------------------------




 HEAD WILL BE SAVED ON UNIT 1017 AT END OF TIME STEP    1, STRESS PERIOD    9


  VOLUME BUDGET FOR ENTIRE MODEL AT END OF TIME STEP    1, STRESS PERIOD   9
  ---------------------------------------------------------------------------------------------------

     CUMULATIVE VOLUME      L**3       RATES FOR THIS TIME STEP      L**3/T          PACKAGE NAME    
     ------------------                 ------------------------                     ----------------

           IN:                                      IN:
           ---                                      ---
              STO-SS =           0.0000                STO-SS =           0.0000     STORAGE                          
                 WEL =           0.0000                   WEL =           0.0000     WEL-1                            
                 GHB =           0.0000                   GHB =           0.0000     GHB-1                            
                 RCH =           0.1593                   RCH =       1.7955E-02     RCH-1                            

            TOTAL IN =           0.1593              TOTAL IN =       1.7955E-02

          OUT:                                     OUT:
          ----                                     ----
              STO-SS =           0.1309                STO-SS =       1.3356E-02     STORAGE                          
                 WEL =           0.0000                   WEL =           0.0000     WEL-1                            
                 GHB =       2.8385E-02                   GHB =       4.5988E-03     GHB-1                            
                 RCH =           0.0000                   RCH =           0.0000     RCH-1                            

           TOTAL OUT =           0.1593             TOTAL OUT =       1.7955E-02

            IN - OUT =       3.0162E-08              IN - OUT =       5.9539E-09

 PERCENT DISCREPANCY =           0.00     PERCENT DISCREPANCY =           0.00




         TIME SUMMARY AT END OF TIME STEP    1 IN STRESS PERIOD    9
                    SECONDS     MINUTES      HOURS       DAYS        YEARS
                    -----------------------------------------------------------
   TIME STEP LENGTH  86400.      1440.0      24.000      1.0000     2.73785E-03
 STRESS PERIOD TIME  86400.      1440.0      24.000      1.0000     2.73785E-03
         TOTAL TIME 7.77600E+05  12960.      216.00      9.0000     2.46407E-02


end timestep


start timestep kper="10" kstp="1" mode="normal"


 OUTPUT CONTROL FOR STRESS PERIOD 10 IS REPEATED USING SETTINGS FROM A PREVIOUS STRESS PERIOD.


 STRESS PERIOD 10 IS TRANSIENT

 UBDSV1 SAVING           STO-SS ON UNIT   1018 AT TIME STEP      1, STRESS PERIOD     10
 UBDSV1 SAVING     FLOW-JA-FACE ON UNIT   1018 AT TIME STEP      1, STRESS PERIOD     10
 UBDSV06 SAVING         DATA-SAT IN MODEL MODEL            PACKAGE NPF             CONNECTED TO MODEL MODEL            PACKAGE NPF              ON UNIT   1018 AT TIME STEP      1, STRESS PERIOD     10
 UBDSV06 SAVING              GHB IN MODEL MODEL            PACKAGE MODEL           CONNECTED TO MODEL MODEL            PACKAGE GHB-1            ON UNIT   1018 AT TIME STEP      1, STRESS PERIOD     10

 GHB PACKAGE (GHB-1) FLOW RATES   PERIOD     10   STEP        1
 -----------------------------------------------
   NUMBER   CELLID                    RATE      
 -----------------------------------------------
     1      (5,1,1)              -5.12381170E-03
 -----------------------------------------------




 HEAD WILL BE SAVED ON UNIT 1017 AT END OF TIME STEP    1, STRESS PERIOD   10


  VOLUME BUDGET FOR ENTIRE MODEL AT END OF TIME STEP    1, STRESS PERIOD  10
  ---------------------------------------------------------------------------------------------------

     CUMULATIVE VOLUME      L**3       RATES FOR THIS TIME STEP      L**3/T          PACKAGE NAME    
     ------------------                 ------------------------                     ----------------

           IN:                                      IN:
           ---                                      ---
              STO-SS =           0.0000                STO-SS =           0.0000     STORAGE                          
                 WEL =           0.0000                   WEL =           0.0000     WEL-1                            
                 GHB =           0.0000                   GHB =           0.0000     GHB-1                            
                 RCH =           0.1774                   RCH =       1.8081E-02     RCH-1                            

            TOTAL IN =           0.1774              TOTAL IN =       1.8081E-02

          OUT:                                     OUT:
          ----                                     ----
              STO-SS =           0.1439                STO-SS =       1.2957E-02     STORAGE                          
                 WEL =           0.0000                   WEL =           0.0000     WEL-1                            
                 GHB =       3.3509E-02                   GHB =       5.1238E-03     GHB-1                            
                 RCH =           0.0000                   RCH =           0.0000     RCH-1                            

           TOTAL OUT =           0.1774             TOTAL OUT =       1.8081E-02

            IN - OUT =       3.6122E-08              IN - OUT =       5.9600E-09

 PERCENT DISCREPANCY =           0.00     PERCENT DISCREPANCY =           0.00




         TIME SUMMARY AT END OF TIME STEP    1 IN STRESS PERIOD   10
                    SECONDS     MINUTES      HOURS       DAYS        YEARS
                    -----------------------------------------------------------
   TIME STEP LENGTH  86400.      1440.0      24.000      1.0000     2.73785E-03
 STRESS PERIOD TIME  86400.      1440.0      24.000      1.0000     2.73785E-03
         TOTAL TIME 8.64000E+05  14400.      240.00      10.000     2.73785E-02


end timestep


start timestep kper="11" kstp="1" mode="normal"


 OUTPUT CONTROL FOR STRESS PERIOD 11 IS REPEATED USING SETTINGS FROM A PREVIOUS STRESS PERIOD.


 STRESS PERIOD 11 IS TRANSIENT

 UBDSV1 SAVING           STO-SS ON UNIT   1018 AT TIME STEP      1, STRESS PERIOD     11
 UBDSV1 SAVING     FLOW-JA-FACE ON UNIT   1018 AT TIME STEP      1, STRESS PERIOD     11
 UBDSV06 SAVING         DATA-SAT IN MODEL MODEL            PACKAGE NPF             CONNECTED TO MODEL MODEL            PACKAGE NPF              ON UNIT   1018 AT TIME STEP      1, STRESS PERIOD     11
 UBDSV06 SAVING              GHB IN MODEL MODEL            PACKAGE MODEL           CONNECTED TO MODEL MODEL            PACKAGE GHB-1            ON UNIT   1018 AT TIME STEP      1, STRESS PERIOD     11

 GHB PACKAGE (GHB-1) FLOW RATES   PERIOD     11   STEP        1
 -----------------------------------------------
   NUMBER   CELLID                    RATE      
 -----------------------------------------------
     1      (5,1,1)              -5.66916380E-03
 -----------------------------------------------




 HEAD WILL BE SAVED ON UNIT 1017 AT END OF TIME STEP    1, STRESS PERIOD   11


  VOLUME BUDGET FOR ENTIRE MODEL AT END OF TIME STEP    1, STRESS PERIOD  11
  ---------------------------------------------------------------------------------------------------

     CUMULATIVE VOLUME      L**3       RATES FOR THIS TIME STEP      L**3/T          PACKAGE NAME    
     ------------------                 ------------------------                     ----------------

           IN:                                      IN:
           ---                                      ---
              STO-SS =           0.0000                STO-SS =           0.0000     STORAGE                          
                 WEL =           0.0000                   WEL =           0.0000     WEL-1                            
                 GHB =           0.0000                   GHB =           0.0000     GHB-1                            
                 RCH =           0.1956                   RCH =       1.8233E-02     RCH-1                            

            TOTAL IN =           0.1956              TOTAL IN =       1.8233E-02

          OUT:                                     OUT:
          ----                                     ----
              STO-SS =           0.1565                STO-SS =       1.2564E-02     STORAGE                          
                 WEL =           0.0000                   WEL =           0.0000     WEL-1                            
                 GHB =       3.9178E-02                   GHB =       5.6692E-03     GHB-1                            
                 RCH =           0.0000                   RCH =           0.0000     RCH-1                            

           TOTAL OUT =           0.1956             TOTAL OUT =       1.8233E-02

            IN - OUT =       4.1678E-08              IN - OUT =       5.5569E-09

 PERCENT DISCREPANCY =           0.00     PERCENT DISCREPANCY =           0.00




         TIME SUMMARY AT END OF TIME STEP    1 IN STRESS PERIOD   11
                    SECONDS     MINUTES      HOURS       DAYS        YEARS
                    -----------------------------------------------------------
   TIME STEP LENGTH  86400.      1440.0      24.000      1.0000     2.73785E-03
 STRESS PERIOD TIME  86400.      1440.0      24.000      1.0000     2.73785E-03
         TOTAL TIME 9.50400E+05  15840.      264.00      11.000     3.01164E-02


end timestep


start timestep kper="12" kstp="1" mode="normal"


 OUTPUT CONTROL FOR STRESS PERIOD 12 IS REPEATED USING SETTINGS FROM A PREVIOUS STRESS PERIOD.


 STRESS PERIOD 12 IS TRANSIENT

 UBDSV1 SAVING           STO-SS ON UNIT   1018 AT TIME STEP      1, STRESS PERIOD     12
 UBDSV1 SAVING     FLOW-JA-FACE ON UNIT   1018 AT TIME STEP      1, STRESS PERIOD     12
 UBDSV06 SAVING         DATA-SAT IN MODEL MODEL            PACKAGE NPF             CONNECTED TO MODEL MODEL            PACKAGE NPF              ON UNIT   1018 AT TIME STEP      1, STRESS PERIOD     12
 UBDSV06 SAVING              GHB IN MODEL MODEL            PACKAGE MODEL           CONNECTED TO MODEL MODEL            PACKAGE GHB-1            ON UNIT   1018 AT TIME STEP      1, STRESS PERIOD     12

 GHB PACKAGE (GHB-1) FLOW RATES   PERIOD     12   STEP        1
 -----------------------------------------------
   NUMBER   CELLID                    RATE      
 -----------------------------------------------
     1      (5,1,1)              -6.22095312E-03
 -----------------------------------------------




 HEAD WILL BE SAVED ON UNIT 1017 AT END OF TIME STEP    1, STRESS PERIOD   12


  VOLUME BUDGET FOR ENTIRE MODEL AT END OF TIME STEP    1, STRESS PERIOD  12
  ---------------------------------------------------------------------------------------------------

     CUMULATIVE VOLUME      L**3       RATES FOR THIS TIME STEP      L**3/T          PACKAGE NAME    
     ------------------                 ------------------------                     ----------------

           IN:                                      IN:
           ---                                      ---
              STO-SS =           0.0000                STO-SS =           0.0000     STORAGE                          
                 WEL =           0.0000                   WEL =           0.0000     WEL-1                            
                 GHB =           0.0000                   GHB =           0.0000     GHB-1                            
                 RCH =           0.2141                   RCH =       1.8417E-02     RCH-1                            

            TOTAL IN =           0.2141              TOTAL IN =       1.8417E-02

          OUT:                                     OUT:
          ----                                     ----
              STO-SS =           0.1687                STO-SS =       1.2196E-02     STORAGE                          
                 WEL =           0.0000                   WEL =           0.0000     WEL-1                            
                 GHB =       4.5399E-02                   GHB =       6.2210E-03     GHB-1                            
                 RCH =           0.0000                   RCH =           0.0000     RCH-1                            

           TOTAL OUT =           0.2141             TOTAL OUT =       1.8417E-02

            IN - OUT =       4.6737E-08              IN - OUT =       5.0588E-09

 PERCENT DISCREPANCY =           0.00     PERCENT DISCREPANCY =           0.00




         TIME SUMMARY AT END OF TIME STEP    1 IN STRESS PERIOD   12
                    SECONDS     MINUTES      HOURS       DAYS        YEARS
                    -----------------------------------------------------------
   TIME STEP LENGTH  86400.      1440.0      24.000      1.0000     2.73785E-03
 STRESS PERIOD TIME  86400.      1440.0      24.000      1.0000     2.73785E-03
         TOTAL TIME 1.03680E+06  17280.      288.00      12.000     3.28542E-02


end timestep


start timestep kper="13" kstp="1" mode="normal"


 OUTPUT CONTROL FOR STRESS PERIOD 13 IS REPEATED USING SETTINGS FROM A PREVIOUS STRESS PERIOD.


 STRESS PERIOD 13 IS TRANSIENT

 UBDSV1 SAVING           STO-SS ON UNIT   1018 AT TIME STEP      1, STRESS PERIOD     13
 UBDSV1 SAVING     FLOW-JA-FACE ON UNIT   1018 AT TIME STEP      1, STRESS PERIOD     13
 UBDSV06 SAVING         DATA-SAT IN MODEL MODEL            PACKAGE NPF             CONNECTED TO MODEL MODEL            PACKAGE NPF              ON UNIT   1018 AT TIME STEP      1, STRESS PERIOD     13
 UBDSV06 SAVING              GHB IN MODEL MODEL            PACKAGE MODEL           CONNECTED TO MODEL MODEL            PACKAGE GHB-1            ON UNIT   1018 AT TIME STEP      1, STRESS PERIOD     13

 GHB PACKAGE (GHB-1) FLOW RATES   PERIOD     13   STEP        1
 -----------------------------------------------
   NUMBER   CELLID                    RATE      
 -----------------------------------------------
     1      (5,1,1)              -6.77572969E-03
 -----------------------------------------------




 HEAD WILL BE SAVED ON UNIT 1017 AT END OF TIME STEP    1, STRESS PERIOD   13


  VOLUME BUDGET FOR ENTIRE MODEL AT END OF TIME STEP    1, STRESS PERIOD  13
  ---------------------------------------------------------------------------------------------------

     CUMULATIVE VOLUME      L**3       RATES FOR THIS TIME STEP      L**3/T          PACKAGE NAME    
     ------------------                 ------------------------                     ----------------

           IN:                                      IN:
           ---                                      ---
              STO-SS =           0.0000                STO-SS =           0.0000     STORAGE                          
                 WEL =           0.0000                   WEL =           0.0000     WEL-1                            
                 GHB =           0.0000                   GHB =           0.0000     GHB-1                            
                 RCH =           0.2327                   RCH =       1.8634E-02     RCH-1                            

            TOTAL IN =           0.2327              TOTAL IN =       1.8634E-02

          OUT:                                     OUT:
          ----                                     ----
              STO-SS =           0.1805                STO-SS =       1.1858E-02     STORAGE                          
                 WEL =           0.0000                   WEL =           0.0000     WEL-1                            
                 GHB =       5.2175E-02                   GHB =       6.7757E-03     GHB-1                            
                 RCH =           0.0000                   RCH =           0.0000     RCH-1                            

           TOTAL OUT =           0.2327             TOTAL OUT =       1.8634E-02

            IN - OUT =       5.1021E-08              IN - OUT =       4.2839E-09

 PERCENT DISCREPANCY =           0.00     PERCENT DISCREPANCY =           0.00




         TIME SUMMARY AT END OF TIME STEP    1 IN STRESS PERIOD   13
                    SECONDS     MINUTES      HOURS       DAYS        YEARS
                    -----------------------------------------------------------
   TIME STEP LENGTH  86400.      1440.0      24.000      1.0000     2.73785E-03
 STRESS PERIOD TIME  86400.      1440.0      24.000      1.0000     2.73785E-03
         TOTAL TIME 1.12320E+06  18720.      312.00      13.000     3.55921E-02


end timestep


start timestep kper="14" kstp="1" mode="normal"


 OUTPUT CONTROL FOR STRESS PERIOD 14 IS REPEATED USING SETTINGS FROM A PREVIOUS STRESS PERIOD.


 STRESS PERIOD 14 IS TRANSIENT

 UBDSV1 SAVING           STO-SS ON UNIT   1018 AT TIME STEP      1, STRESS PERIOD     14
 UBDSV1 SAVING     FLOW-JA-FACE ON UNIT   1018 AT TIME STEP      1, STRESS PERIOD     14
 UBDSV06 SAVING         DATA-SAT IN MODEL MODEL            PACKAGE NPF             CONNECTED TO MODEL MODEL            PACKAGE NPF              ON UNIT   1018 AT TIME STEP      1, STRESS PERIOD     14
 UBDSV06 SAVING              GHB IN MODEL MODEL            PACKAGE MODEL           CONNECTED TO MODEL MODEL            PACKAGE GHB-1            ON UNIT   1018 AT TIME STEP      1, STRESS PERIOD     14

 GHB PACKAGE (GHB-1) FLOW RATES   PERIOD     14   STEP        1
 -----------------------------------------------
   NUMBER   CELLID                    RATE      
 -----------------------------------------------
     1      (5,1,1)              -7.33145353E-03
 -----------------------------------------------




 HEAD WILL BE SAVED ON UNIT 1017 AT END OF TIME STEP    1, STRESS PERIOD   14


  VOLUME BUDGET FOR ENTIRE MODEL AT END OF TIME STEP    1, STRESS PERIOD  14
  ---------------------------------------------------------------------------------------------------

     CUMULATIVE VOLUME      L**3       RATES FOR THIS TIME STEP      L**3/T          PACKAGE NAME    
     ------------------                 ------------------------                     ----------------

           IN:                                      IN:
           ---                                      ---
              STO-SS =           0.0000                STO-SS =           0.0000     STORAGE                          
                 WEL =           0.0000                   WEL =           0.0000     WEL-1                            
                 GHB =           0.0000                   GHB =           0.0000     GHB-1                            
                 RCH =           0.2516                   RCH =       1.8888E-02     RCH-1                            

            TOTAL IN =           0.2516              TOTAL IN =       1.8888E-02

          OUT:                                     OUT:
          ----                                     ----
              STO-SS =           0.1921                STO-SS =       1.1556E-02     STORAGE                          
                 WEL =           0.0000                   WEL =           0.0000     WEL-1                            
                 GHB =       5.9506E-02                   GHB =       7.3315E-03     GHB-1                            
                 RCH =           0.0000                   RCH =           0.0000     RCH-1                            

           TOTAL OUT =           0.2516             TOTAL OUT =       1.8888E-02

            IN - OUT =       5.5849E-08              IN - OUT =       4.8281E-09

 PERCENT DISCREPANCY =           0.00     PERCENT DISCREPANCY =           0.00




         TIME SUMMARY AT END OF TIME STEP    1 IN STRESS PERIOD   14
                    SECONDS     MINUTES      HOURS       DAYS        YEARS
                    -----------------------------------------------------------
   TIME STEP LENGTH  86400.      1440.0      24.000      1.0000     2.73785E-03
 STRESS PERIOD TIME  86400.      1440.0      24.000      1.0000     2.73785E-03
         TOTAL TIME 1.20960E+06  20160.      336.00      14.000     3.83299E-02


end timestep


start timestep kper="15" kstp="1" mode="normal"


 OUTPUT CONTROL FOR STRESS PERIOD 15 IS REPEATED USING SETTINGS FROM A PREVIOUS STRESS PERIOD.


 STRESS PERIOD 15 IS TRANSIENT

 UBDSV1 SAVING           STO-SS ON UNIT   1018 AT TIME STEP      1, STRESS PERIOD     15
 UBDSV1 SAVING     FLOW-JA-FACE ON UNIT   1018 AT TIME STEP      1, STRESS PERIOD     15
 UBDSV06 SAVING         DATA-SAT IN MODEL MODEL            PACKAGE NPF             CONNECTED TO MODEL MODEL            PACKAGE NPF              ON UNIT   1018 AT TIME STEP      1, STRESS PERIOD     15
 UBDSV06 SAVING              GHB IN MODEL MODEL            PACKAGE MODEL           CONNECTED TO MODEL MODEL            PACKAGE GHB-1            ON UNIT   1018 AT TIME STEP      1, STRESS PERIOD     15

 GHB PACKAGE (GHB-1) FLOW RATES   PERIOD     15   STEP        1
 -----------------------------------------------
   NUMBER   CELLID                    RATE      
 -----------------------------------------------
     1      (5,1,1)              -7.88675026E-03
 -----------------------------------------------




 HEAD WILL BE SAVED ON UNIT 1017 AT END OF TIME STEP    1, STRESS PERIOD   15


  VOLUME BUDGET FOR ENTIRE MODEL AT END OF TIME STEP    1, STRESS PERIOD  15
  ---------------------------------------------------------------------------------------------------

     CUMULATIVE VOLUME      L**3       RATES FOR THIS TIME STEP      L**3/T          PACKAGE NAME    
     ------------------                 ------------------------                     ----------------

           IN:                                      IN:
           ---                                      ---
              STO-SS =           0.0000                STO-SS =           0.0000     STORAGE                          
                 WEL =           0.0000                   WEL =           0.0000     WEL-1                            
                 GHB =           0.0000                   GHB =           0.0000     GHB-1                            
                 RCH =           0.2708                   RCH =       1.9181E-02     RCH-1                            

            TOTAL IN =           0.2708              TOTAL IN =       1.9181E-02

          OUT:                                     OUT:
          ----                                     ----
              STO-SS =           0.2034                STO-SS =       1.1294E-02     STORAGE                          
                 WEL =           0.0000                   WEL =           0.0000     WEL-1                            
                 GHB =       6.7393E-02                   GHB =       7.8868E-03     GHB-1                            
                 RCH =           0.0000                   RCH =           0.0000     RCH-1                            

           TOTAL OUT =           0.2708             TOTAL OUT =       1.9181E-02

            IN - OUT =       6.0602E-08              IN - OUT =       4.7529E-09

 PERCENT DISCREPANCY =           0.00     PERCENT DISCREPANCY =           0.00




         TIME SUMMARY AT END OF TIME STEP    1 IN STRESS PERIOD   15
                    SECONDS     MINUTES      HOURS       DAYS        YEARS
                    -----------------------------------------------------------
   TIME STEP LENGTH  86400.      1440.0      24.000      1.0000     2.73785E-03
 STRESS PERIOD TIME  86400.      1440.0      24.000      1.0000     2.73785E-03
         TOTAL TIME 1.29600E+06  21600.      360.00      15.000     4.10678E-02


end timestep


start timestep kper="16" kstp="1" mode="normal"


 OUTPUT CONTROL FOR STRESS PERIOD 16 IS REPEATED USING SETTINGS FROM A PREVIOUS STRESS PERIOD.


 STRESS PERIOD 16 IS TRANSIENT

 UBDSV1 SAVING           STO-SS ON UNIT   1018 AT TIME STEP      1, STRESS PERIOD     16
 UBDSV1 SAVING     FLOW-JA-FACE ON UNIT   1018 AT TIME STEP      1, STRESS PERIOD     16
 UBDSV06 SAVING         DATA-SAT IN MODEL MODEL            PACKAGE NPF             CONNECTED TO MODEL MODEL            PACKAGE NPF              ON UNIT   1018 AT TIME STEP      1, STRESS PERIOD     16
 UBDSV06 SAVING              GHB IN MODEL MODEL            PACKAGE MODEL           CONNECTED TO MODEL MODEL            PACKAGE GHB-1            ON UNIT   1018 AT TIME STEP      1, STRESS PERIOD     16

 GHB PACKAGE (GHB-1) FLOW RATES   PERIOD     16   STEP        1
 -----------------------------------------------
   NUMBER   CELLID                    RATE      
 -----------------------------------------------
     1      (5,1,1)              -8.44077408E-03
 -----------------------------------------------




 HEAD WILL BE SAVED ON UNIT 1017 AT END OF TIME STEP    1, STRESS PERIOD   16


  VOLUME BUDGET FOR ENTIRE MODEL AT END OF TIME STEP    1, STRESS PERIOD  16
  ---------------------------------------------------------------------------------------------------

     CUMULATIVE VOLUME      L**3       RATES FOR THIS TIME STEP      L**3/T          PACKAGE NAME    
     ------------------                 ------------------------                     ----------------

           IN:                                      IN:
           ---                                      ---
              STO-SS =           0.0000                STO-SS =           0.0000     STORAGE                          
                 WEL =           0.0000                   WEL =           0.0000     WEL-1                            
                 GHB =           0.0000                   GHB =           0.0000     GHB-1                            
                 RCH =           0.2903                   RCH =       1.9514E-02     RCH-1                            

            TOTAL IN =           0.2903              TOTAL IN =       1.9514E-02

          OUT:                                     OUT:
          ----                                     ----
              STO-SS =           0.2144                STO-SS =       1.1073E-02     STORAGE                          
                 WEL =           0.0000                   WEL =           0.0000     WEL-1                            
                 GHB =       7.5834E-02                   GHB =       8.4408E-03     GHB-1                            
                 RCH =           0.0000                   RCH =           0.0000     RCH-1                            

           TOTAL OUT =           0.2903             TOTAL OUT =       1.9514E-02

            IN - OUT =       6.5148E-08              IN - OUT =       4.5457E-09

 PERCENT DISCREPANCY =           0.00     PERCENT DISCREPANCY =           0.00




         TIME SUMMARY AT END OF TIME STEP    1 IN STRESS PERIOD   16
                    SECONDS     MINUTES      HOURS       DAYS        YEARS
                    -----------------------------------------------------------
   TIME STEP LENGTH  86400.      1440.0      24.000      1.0000     2.73785E-03
 STRESS PERIOD TIME  86400.      1440.0      24.000      1.0000     2.73785E-03
         TOTAL TIME 1.38240E+06  23040.      384.00      16.000     4.38056E-02


end timestep


start timestep kper="17" kstp="1" mode="normal"


 OUTPUT CONTROL FOR STRESS PERIOD 17 IS REPEATED USING SETTINGS FROM A PREVIOUS STRESS PERIOD.


 STRESS PERIOD 17 IS TRANSIENT

 UBDSV1 SAVING           STO-SS ON UNIT   1018 AT TIME STEP      1, STRESS PERIOD     17
 UBDSV1 SAVING     FLOW-JA-FACE ON UNIT   1018 AT TIME STEP      1, STRESS PERIOD     17
 UBDSV06 SAVING         DATA-SAT IN MODEL MODEL            PACKAGE NPF             CONNECTED TO MODEL MODEL            PACKAGE NPF              ON UNIT   1018 AT TIME STEP      1, STRESS PERIOD     17
 UBDSV06 SAVING              GHB IN MODEL MODEL            PACKAGE MODEL           CONNECTED TO MODEL MODEL            PACKAGE GHB-1            ON UNIT   1018 AT TIME STEP      1, STRESS PERIOD     17

 GHB PACKAGE (GHB-1) FLOW RATES   PERIOD     17   STEP        1
 -----------------------------------------------
   NUMBER   CELLID                    RATE      
 -----------------------------------------------
     1      (5,1,1)              -8.99313967E-03
 -----------------------------------------------




 HEAD WILL BE SAVED ON UNIT 1017 AT END OF TIME STEP    1, STRESS PERIOD   17


  VOLUME BUDGET FOR ENTIRE MODEL AT END OF TIME STEP    1, STRESS PERIOD  17
  ---------------------------------------------------------------------------------------------------

     CUMULATIVE VOLUME      L**3       RATES FOR THIS TIME STEP      L**3/T          PACKAGE NAME    
     ------------------                 ------------------------                     ----------------

           IN:                                      IN:
           ---                                      ---
              STO-SS =           0.0000                STO-SS =           0.0000     STORAGE                          
                 WEL =           0.0000                   WEL =           0.0000     WEL-1                            
                 GHB =           0.0000                   GHB =           0.0000     GHB-1                            
                 RCH =           0.3102                   RCH =       1.9890E-02     RCH-1                            

            TOTAL IN =           0.3102              TOTAL IN =       1.9890E-02

          OUT:                                     OUT:
          ----                                     ----
              STO-SS =           0.2253                STO-SS =       1.0897E-02     STORAGE                          
                 WEL =           0.0000                   WEL =           0.0000     WEL-1                            
                 GHB =       8.4827E-02                   GHB =       8.9931E-03     GHB-1                            
                 RCH =           0.0000                   RCH =           0.0000     RCH-1                            

           TOTAL OUT =           0.3102             TOTAL OUT =       1.9890E-02

            IN - OUT =       6.9738E-08              IN - OUT =       4.5904E-09

 PERCENT DISCREPANCY =           0.00     PERCENT DISCREPANCY =           0.00




         TIME SUMMARY AT END OF TIME STEP    1 IN STRESS PERIOD   17
                    SECONDS     MINUTES      HOURS       DAYS        YEARS
                    -----------------------------------------------------------
   TIME STEP LENGTH  86400.      1440.0      24.000      1.0000     2.73785E-03
 STRESS PERIOD TIME  86400.      1440.0      24.000      1.0000     2.73785E-03
         TOTAL TIME 1.46880E+06  24480.      408.00      17.000     4.65435E-02


end timestep


start timestep kper="18" kstp="1" mode="normal"


 OUTPUT CONTROL FOR STRESS PERIOD 18 IS REPEATED USING SETTINGS FROM A PREVIOUS STRESS PERIOD.


 STRESS PERIOD 18 IS TRANSIENT

 UBDSV1 SAVING           STO-SS ON UNIT   1018 AT TIME STEP      1, STRESS PERIOD     18
 UBDSV1 SAVING     FLOW-JA-FACE ON UNIT   1018 AT TIME STEP      1, STRESS PERIOD     18
 UBDSV06 SAVING         DATA-SAT IN MODEL MODEL            PACKAGE NPF             CONNECTED TO MODEL MODEL            PACKAGE NPF              ON UNIT   1018 AT TIME STEP      1, STRESS PERIOD     18
 UBDSV06 SAVING              GHB IN MODEL MODEL            PACKAGE MODEL           CONNECTED TO MODEL MODEL            PACKAGE GHB-1            ON UNIT   1018 AT TIME STEP      1, STRESS PERIOD     18

 GHB PACKAGE (GHB-1) FLOW RATES   PERIOD     18   STEP        1
 -----------------------------------------------
   NUMBER   CELLID                    RATE      
 -----------------------------------------------
     1      (5,1,1)              -9.58112910E-03
 -----------------------------------------------




 HEAD WILL BE SAVED ON UNIT 1017 AT END OF TIME STEP    1, STRESS PERIOD   18


  VOLUME BUDGET FOR ENTIRE MODEL AT END OF TIME STEP    1, STRESS PERIOD  18
  ---------------------------------------------------------------------------------------------------

     CUMULATIVE VOLUME      L**3       RATES FOR THIS TIME STEP      L**3/T          PACKAGE NAME    
     ------------------                 ------------------------                     ----------------

           IN:                                      IN:
           ---                                      ---
              STO-SS =           0.0000                STO-SS =           0.0000     STORAGE                          
                 WEL =           0.0000                   WEL =           0.0000     WEL-1                            
                 GHB =           0.0000                   GHB =           0.0000     GHB-1                            
                 RCH =           0.3305                   RCH =       2.0313E-02     RCH-1                            

            TOTAL IN =           0.3305              TOTAL IN =       2.0313E-02

          OUT:                                     OUT:
          ----                                     ----
              STO-SS =           0.2361                STO-SS =       1.0732E-02     STORAGE                          
                 WEL =           0.0000                   WEL =           0.0000     WEL-1                            
                 GHB =       9.4408E-02                   GHB =       9.5811E-03     GHB-1                            
                 RCH =           0.0000                   RCH =           0.0000     RCH-1                            

           TOTAL OUT =           0.3305             TOTAL OUT =       2.0313E-02

            IN - OUT =       7.4261E-08              IN - OUT =       4.5229E-09

 PERCENT DISCREPANCY =           0.00     PERCENT DISCREPANCY =           0.00




         TIME SUMMARY AT END OF TIME STEP    1 IN STRESS PERIOD   18
                    SECONDS     MINUTES      HOURS       DAYS        YEARS
                    -----------------------------------------------------------
   TIME STEP LENGTH  86400.      1440.0      24.000      1.0000     2.73785E-03
 STRESS PERIOD TIME  86400.      1440.0      24.000      1.0000     2.73785E-03
         TOTAL TIME 1.55520E+06  25920.      432.00      18.000     4.92813E-02


end timestep


start timestep kper="19" kstp="1" mode="normal"


 OUTPUT CONTROL FOR STRESS PERIOD 19 IS REPEATED USING SETTINGS FROM A PREVIOUS STRESS PERIOD.


 STRESS PERIOD 19 IS TRANSIENT

 UBDSV1 SAVING           STO-SS ON UNIT   1018 AT TIME STEP      1, STRESS PERIOD     19
 UBDSV1 SAVING     FLOW-JA-FACE ON UNIT   1018 AT TIME STEP      1, STRESS PERIOD     19
 UBDSV06 SAVING         DATA-SAT IN MODEL MODEL            PACKAGE NPF             CONNECTED TO MODEL MODEL            PACKAGE NPF              ON UNIT   1018 AT TIME STEP      1, STRESS PERIOD     19
 UBDSV06 SAVING              GHB IN MODEL MODEL            PACKAGE MODEL           CONNECTED TO MODEL MODEL            PACKAGE GHB-1            ON UNIT   1018 AT TIME STEP      1, STRESS PERIOD     19

 GHB PACKAGE (GHB-1) FLOW RATES   PERIOD     19   STEP        1
 -----------------------------------------------
   NUMBER   CELLID                    RATE      
 -----------------------------------------------
     1      (5,1,1)              -1.02969003E-02
 -----------------------------------------------




 HEAD WILL BE SAVED ON UNIT 1017 AT END OF TIME STEP    1, STRESS PERIOD   19


  VOLUME BUDGET FOR ENTIRE MODEL AT END OF TIME STEP    1, STRESS PERIOD  19
  ---------------------------------------------------------------------------------------------------

     CUMULATIVE VOLUME      L**3       RATES FOR THIS TIME STEP      L**3/T          PACKAGE NAME    
     ------------------                 ------------------------                     ----------------

           IN:                                      IN:
           ---                                      ---
              STO-SS =           0.0000                STO-SS =           0.0000     STORAGE                          
                 WEL =           0.0000                   WEL =           0.0000     WEL-1                            
                 GHB =           0.0000                   GHB =           0.0000     GHB-1                            
                 RCH =           0.3513                   RCH =       2.0820E-02     RCH-1                            

            TOTAL IN =           0.3513              TOTAL IN =       2.0820E-02

          OUT:                                     OUT:
          ----                                     ----
              STO-SS =           0.2466                STO-SS =       1.0523E-02     STORAGE                          
                 WEL =           0.0000                   WEL =           0.0000     WEL-1                            
                 GHB =           0.1047                   GHB =       1.0297E-02     GHB-1                            
                 RCH =           0.0000                   RCH =           0.0000     RCH-1                            

           TOTAL OUT =           0.3513             TOTAL OUT =       2.0820E-02

            IN - OUT =       7.8445E-08              IN - OUT =       4.1844E-09

 PERCENT DISCREPANCY =           0.00     PERCENT DISCREPANCY =           0.00




         TIME SUMMARY AT END OF TIME STEP    1 IN STRESS PERIOD   19
                    SECONDS     MINUTES      HOURS       DAYS        YEARS
                    -----------------------------------------------------------
   TIME STEP LENGTH  86400.      1440.0      24.000      1.0000     2.73785E-03
 STRESS PERIOD TIME  86400.      1440.0      24.000      1.0000     2.73785E-03
         TOTAL TIME 1.64160E+06  27360.      456.00      19.000     5.20192E-02


end timestep


start timestep kper="20" kstp="1" mode="normal"


 OUTPUT CONTROL FOR STRESS PERIOD 20 IS REPEATED USING SETTINGS FROM A PREVIOUS STRESS PERIOD.


 STRESS PERIOD 20 IS TRANSIENT

 UBDSV1 SAVING           STO-SS ON UNIT   1018 AT TIME STEP      1, STRESS PERIOD     20
 UBDSV1 SAVING     FLOW-JA-FACE ON UNIT   1018 AT TIME STEP      1, STRESS PERIOD     20
 UBDSV06 SAVING         DATA-SAT IN MODEL MODEL            PACKAGE NPF             CONNECTED TO MODEL MODEL            PACKAGE NPF              ON UNIT   1018 AT TIME STEP      1, STRESS PERIOD     20
 UBDSV06 SAVING              GHB IN MODEL MODEL            PACKAGE MODEL           CONNECTED TO MODEL MODEL            PACKAGE GHB-1            ON UNIT   1018 AT TIME STEP      1, STRESS PERIOD     20

 GHB PACKAGE (GHB-1) FLOW RATES   PERIOD     20   STEP        1
 -----------------------------------------------
   NUMBER   CELLID                    RATE      
 -----------------------------------------------
     1      (5,1,1)              -1.10520870E-02
 -----------------------------------------------




 HEAD WILL BE SAVED ON UNIT 1017 AT END OF TIME STEP    1, STRESS PERIOD   20


  VOLUME BUDGET FOR ENTIRE MODEL AT END OF TIME STEP    1, STRESS PERIOD  20
  ---------------------------------------------------------------------------------------------------

     CUMULATIVE VOLUME      L**3       RATES FOR THIS TIME STEP      L**3/T          PACKAGE NAME    
     ------------------                 ------------------------                     ----------------

           IN:                                      IN:
           ---                                      ---
              STO-SS =           0.0000                STO-SS =           0.0000     STORAGE                          
                 WEL =           0.0000                   WEL =           0.0000     WEL-1                            
                 GHB =           0.0000                   GHB =           0.0000     GHB-1                            
                 RCH =           0.3727                   RCH =       2.1431E-02     RCH-1                            

            TOTAL IN =           0.3727              TOTAL IN =       2.1431E-02

          OUT:                                     OUT:
          ----                                     ----
              STO-SS =           0.2570                STO-SS =       1.0379E-02     STORAGE                          
                 WEL =           0.0000                   WEL =           0.0000     WEL-1                            
                 GHB =           0.1158                   GHB =       1.1052E-02     GHB-1                            
                 RCH =           0.0000                   RCH =           0.0000     RCH-1                            

           TOTAL OUT =           0.3727             TOTAL OUT =       2.1431E-02

            IN - OUT =       8.2172E-08              IN - OUT =       3.7270E-09

 PERCENT DISCREPANCY =           0.00     PERCENT DISCREPANCY =           0.00




         TIME SUMMARY AT END OF TIME STEP    1 IN STRESS PERIOD   20
                    SECONDS     MINUTES      HOURS       DAYS        YEARS
                    -----------------------------------------------------------
   TIME STEP LENGTH  86400.      1440.0      24.000      1.0000     2.73785E-03
 STRESS PERIOD TIME  86400.      1440.0      24.000      1.0000     2.73785E-03
         TOTAL TIME 1.72800E+06  28800.      480.00      20.000     5.47570E-02


end timestep


start timestep kper="21" kstp="1" mode="normal"


 OUTPUT CONTROL FOR STRESS PERIOD 21 IS REPEATED USING SETTINGS FROM A PREVIOUS STRESS PERIOD.


 STRESS PERIOD 21 IS TRANSIENT

 UBDSV1 SAVING           STO-SS ON UNIT   1018 AT TIME STEP      1, STRESS PERIOD     21
 UBDSV1 SAVING     FLOW-JA-FACE ON UNIT   1018 AT TIME STEP      1, STRESS PERIOD     21
 UBDSV06 SAVING         DATA-SAT IN MODEL MODEL            PACKAGE NPF             CONNECTED TO MODEL MODEL            PACKAGE NPF              ON UNIT   1018 AT TIME STEP      1, STRESS PERIOD     21
 UBDSV06 SAVING              GHB IN MODEL MODEL            PACKAGE MODEL           CONNECTED TO MODEL MODEL            PACKAGE GHB-1            ON UNIT   1018 AT TIME STEP      1, STRESS PERIOD     21

 GHB PACKAGE (GHB-1) FLOW RATES   PERIOD     21   STEP        1
 -----------------------------------------------
   NUMBER   CELLID                    RATE      
 -----------------------------------------------
     1      (5,1,1)              -1.18203903E-02
 -----------------------------------------------




 HEAD WILL BE SAVED ON UNIT 1017 AT END OF TIME STEP    1, STRESS PERIOD   21


  VOLUME BUDGET FOR ENTIRE MODEL AT END OF TIME STEP    1, STRESS PERIOD  21
  ---------------------------------------------------------------------------------------------------

[...]
  ---------------------------------------------------------------------------------------------------

     CUMULATIVE VOLUME      L**3       RATES FOR THIS TIME STEP      L**3/T          PACKAGE NAME    
     ------------------                 ------------------------                     ----------------

           IN:                                      IN:
           ---                                      ---
              STO-SS =           0.0000                STO-SS =           0.0000     STORAGE                          
                 WEL =           0.0000                   WEL =           0.0000     WEL-1                            
                 GHB =           0.0000                   GHB =           0.0000     GHB-1                            
                 RCH =          15.7556                   RCH =           0.2600     RCH-1                            

            TOTAL IN =          15.7556              TOTAL IN =           0.2600

          OUT:                                     OUT:
          ----                                     ----
              STO-SS =           1.6226                STO-SS =       1.3269E-04     STORAGE                          
                 WEL =           0.0000                   WEL =           0.0000     WEL-1                            
                 GHB =          14.1329                   GHB =           0.2599     GHB-1                            
                 RCH =           0.0000                   RCH =           0.0000     RCH-1                            

           TOTAL OUT =          15.7556             TOTAL OUT =           0.2600

            IN - OUT =       1.4289E-07              IN - OUT =       1.5573E-12

 PERCENT DISCREPANCY =           0.00     PERCENT DISCREPANCY =           0.00




         TIME SUMMARY AT END OF TIME STEP    1 IN STRESS PERIOD  105
                    SECONDS     MINUTES      HOURS       DAYS        YEARS
                    -----------------------------------------------------------
   TIME STEP LENGTH  86400.      1440.0      24.000      1.0000     2.73785E-03
 STRESS PERIOD TIME  86400.      1440.0      24.000      1.0000     2.73785E-03
         TOTAL TIME 9.07200E+06 1.51200E+05  2520.0      105.00     0.28747    


end timestep


start timestep kper="106" kstp="1" mode="normal"


 OUTPUT CONTROL FOR STRESS PERIOD 106 IS REPEATED USING SETTINGS FROM A PREVIOUS STRESS PERIOD.


 STRESS PERIOD 106 IS TRANSIENT

 UBDSV1 SAVING           STO-SS ON UNIT   1018 AT TIME STEP      1, STRESS PERIOD    106
 UBDSV1 SAVING     FLOW-JA-FACE ON UNIT   1018 AT TIME STEP      1, STRESS PERIOD    106
 UBDSV06 SAVING         DATA-SAT IN MODEL MODEL            PACKAGE NPF             CONNECTED TO MODEL MODEL            PACKAGE NPF              ON UNIT   1018 AT TIME STEP      1, STRESS PERIOD    106
 UBDSV06 SAVING              GHB IN MODEL MODEL            PACKAGE MODEL           CONNECTED TO MODEL MODEL            PACKAGE GHB-1            ON UNIT   1018 AT TIME STEP      1, STRESS PERIOD    106

 GHB PACKAGE (GHB-1) FLOW RATES   PERIOD    106   STEP        1
 -----------------------------------------------
   NUMBER   CELLID                    RATE      
 -----------------------------------------------
     1      (5,1,1)              -0.25987609    
 -----------------------------------------------




 HEAD WILL BE SAVED ON UNIT 1017 AT END OF TIME STEP    1, STRESS PERIOD  106


  VOLUME BUDGET FOR ENTIRE MODEL AT END OF TIME STEP    1, STRESS PERIOD 106
  ---------------------------------------------------------------------------------------------------

     CUMULATIVE VOLUME      L**3       RATES FOR THIS TIME STEP      L**3/T          PACKAGE NAME    
     ------------------                 ------------------------                     ----------------

           IN:                                      IN:
           ---                                      ---
              STO-SS =           0.0000                STO-SS =           0.0000     STORAGE                          
                 WEL =           0.0000                   WEL =           0.0000     WEL-1                            
                 GHB =           0.0000                   GHB =           0.0000     GHB-1                            
                 RCH =          16.0155                   RCH =           0.2600     RCH-1                            

            TOTAL IN =          16.0155              TOTAL IN =           0.2600

          OUT:                                     OUT:
          ----                                     ----
              STO-SS =           1.6227                STO-SS =       1.1415E-04     STORAGE                          
                 WEL =           0.0000                   WEL =           0.0000     WEL-1                            
                 GHB =          14.3928                   GHB =           0.2599     GHB-1                            
                 RCH =           0.0000                   RCH =           0.0000     RCH-1                            

           TOTAL OUT =          16.0155             TOTAL OUT =           0.2600

            IN - OUT =       1.4289E-07              IN - OUT =       1.8130E-12

 PERCENT DISCREPANCY =           0.00     PERCENT DISCREPANCY =           0.00




         TIME SUMMARY AT END OF TIME STEP    1 IN STRESS PERIOD  106
                    SECONDS     MINUTES      HOURS       DAYS        YEARS
                    -----------------------------------------------------------
   TIME STEP LENGTH  86400.      1440.0      24.000      1.0000     2.73785E-03
 STRESS PERIOD TIME  86400.      1440.0      24.000      1.0000     2.73785E-03
         TOTAL TIME 9.15840E+06 1.52640E+05  2544.0      106.00     0.29021    


end timestep


start timestep kper="107" kstp="1" mode="normal"


 OUTPUT CONTROL FOR STRESS PERIOD 107 IS REPEATED USING SETTINGS FROM A PREVIOUS STRESS PERIOD.


 STRESS PERIOD 107 IS TRANSIENT

 UBDSV1 SAVING           STO-SS ON UNIT   1018 AT TIME STEP      1, STRESS PERIOD    107
 UBDSV1 SAVING     FLOW-JA-FACE ON UNIT   1018 AT TIME STEP      1, STRESS PERIOD    107
 UBDSV06 SAVING         DATA-SAT IN MODEL MODEL            PACKAGE NPF             CONNECTED TO MODEL MODEL            PACKAGE NPF              ON UNIT   1018 AT TIME STEP      1, STRESS PERIOD    107
 UBDSV06 SAVING              GHB IN MODEL MODEL            PACKAGE MODEL           CONNECTED TO MODEL MODEL            PACKAGE GHB-1            ON UNIT   1018 AT TIME STEP      1, STRESS PERIOD    107

 GHB PACKAGE (GHB-1) FLOW RATES   PERIOD    107   STEP        1
 -----------------------------------------------
   NUMBER   CELLID                    RATE      
 -----------------------------------------------
     1      (5,1,1)              -0.25989377    
 -----------------------------------------------




 HEAD WILL BE SAVED ON UNIT 1017 AT END OF TIME STEP    1, STRESS PERIOD  107


  VOLUME BUDGET FOR ENTIRE MODEL AT END OF TIME STEP    1, STRESS PERIOD 107
  ---------------------------------------------------------------------------------------------------

     CUMULATIVE VOLUME      L**3       RATES FOR THIS TIME STEP      L**3/T          PACKAGE NAME    
     ------------------                 ------------------------                     ----------------

           IN:                                      IN:
           ---                                      ---
              STO-SS =           0.0000                STO-SS =           0.0000     STORAGE                          
                 WEL =           0.0000                   WEL =           0.0000     WEL-1                            
                 GHB =           0.0000                   GHB =           0.0000     GHB-1                            
                 RCH =          16.2755                   RCH =           0.2600     RCH-1                            

            TOTAL IN =          16.2755              TOTAL IN =           0.2600

          OUT:                                     OUT:
          ----                                     ----
              STO-SS =           1.6228                STO-SS =       9.8138E-05     STORAGE                          
                 WEL =           0.0000                   WEL =           0.0000     WEL-1                            
                 GHB =          14.6527                   GHB =           0.2599     GHB-1                            
                 RCH =           0.0000                   RCH =           0.0000     RCH-1                            

           TOTAL OUT =          16.2755             TOTAL OUT =           0.2600

            IN - OUT =       1.4289E-07              IN - OUT =       2.1100E-12

 PERCENT DISCREPANCY =           0.00     PERCENT DISCREPANCY =           0.00




         TIME SUMMARY AT END OF TIME STEP    1 IN STRESS PERIOD  107
                    SECONDS     MINUTES      HOURS       DAYS        YEARS
                    -----------------------------------------------------------
   TIME STEP LENGTH  86400.      1440.0      24.000      1.0000     2.73785E-03
 STRESS PERIOD TIME  86400.      1440.0      24.000      1.0000     2.73785E-03
         TOTAL TIME 9.24480E+06 1.54080E+05  2568.0      107.00     0.29295    


end timestep


start timestep kper="108" kstp="1" mode="normal"


 OUTPUT CONTROL FOR STRESS PERIOD 108 IS REPEATED USING SETTINGS FROM A PREVIOUS STRESS PERIOD.


 STRESS PERIOD 108 IS TRANSIENT

 UBDSV1 SAVING           STO-SS ON UNIT   1018 AT TIME STEP      1, STRESS PERIOD    108
 UBDSV1 SAVING     FLOW-JA-FACE ON UNIT   1018 AT TIME STEP      1, STRESS PERIOD    108
 UBDSV06 SAVING         DATA-SAT IN MODEL MODEL            PACKAGE NPF             CONNECTED TO MODEL MODEL            PACKAGE NPF              ON UNIT   1018 AT TIME STEP      1, STRESS PERIOD    108
 UBDSV06 SAVING              GHB IN MODEL MODEL            PACKAGE MODEL           CONNECTED TO MODEL MODEL            PACKAGE GHB-1            ON UNIT   1018 AT TIME STEP      1, STRESS PERIOD    108

 GHB PACKAGE (GHB-1) FLOW RATES   PERIOD    108   STEP        1
 -----------------------------------------------
   NUMBER   CELLID                    RATE      
 -----------------------------------------------
     1      (5,1,1)              -0.25990895    
 -----------------------------------------------




 HEAD WILL BE SAVED ON UNIT 1017 AT END OF TIME STEP    1, STRESS PERIOD  108


  VOLUME BUDGET FOR ENTIRE MODEL AT END OF TIME STEP    1, STRESS PERIOD 108
  ---------------------------------------------------------------------------------------------------

     CUMULATIVE VOLUME      L**3       RATES FOR THIS TIME STEP      L**3/T          PACKAGE NAME    
     ------------------                 ------------------------                     ----------------

           IN:                                      IN:
           ---                                      ---
              STO-SS =           0.0000                STO-SS =           0.0000     STORAGE                          
                 WEL =           0.0000                   WEL =           0.0000     WEL-1                            
                 GHB =           0.0000                   GHB =           0.0000     GHB-1                            
                 RCH =          16.5355                   RCH =           0.2600     RCH-1                            

            TOTAL IN =          16.5355              TOTAL IN =           0.2600

          OUT:                                     OUT:
          ----                                     ----
              STO-SS =           1.6229                STO-SS =       8.4335E-05     STORAGE                          
                 WEL =           0.0000                   WEL =           0.0000     WEL-1                            
                 GHB =          14.9126                   GHB =           0.2599     GHB-1                            
                 RCH =           0.0000                   RCH =           0.0000     RCH-1                            

           TOTAL OUT =          16.5355             TOTAL OUT =           0.2600

            IN - OUT =       1.4290E-07              IN - OUT =       2.4561E-12

 PERCENT DISCREPANCY =           0.00     PERCENT DISCREPANCY =           0.00




         TIME SUMMARY AT END OF TIME STEP    1 IN STRESS PERIOD  108
                    SECONDS     MINUTES      HOURS       DAYS        YEARS
                    -----------------------------------------------------------
   TIME STEP LENGTH  86400.      1440.0      24.000      1.0000     2.73785E-03
 STRESS PERIOD TIME  86400.      1440.0      24.000      1.0000     2.73785E-03
         TOTAL TIME 9.33120E+06 1.55520E+05  2592.0      108.00     0.29569    


end timestep


start timestep kper="109" kstp="1" mode="normal"


 OUTPUT CONTROL FOR STRESS PERIOD 109 IS REPEATED USING SETTINGS FROM A PREVIOUS STRESS PERIOD.


 STRESS PERIOD 109 IS TRANSIENT

 UBDSV1 SAVING           STO-SS ON UNIT   1018 AT TIME STEP      1, STRESS PERIOD    109
 UBDSV1 SAVING     FLOW-JA-FACE ON UNIT   1018 AT TIME STEP      1, STRESS PERIOD    109
 UBDSV06 SAVING         DATA-SAT IN MODEL MODEL            PACKAGE NPF             CONNECTED TO MODEL MODEL            PACKAGE NPF              ON UNIT   1018 AT TIME STEP      1, STRESS PERIOD    109
 UBDSV06 SAVING              GHB IN MODEL MODEL            PACKAGE MODEL           CONNECTED TO MODEL MODEL            PACKAGE GHB-1            ON UNIT   1018 AT TIME STEP      1, STRESS PERIOD    109

 GHB PACKAGE (GHB-1) FLOW RATES   PERIOD    109   STEP        1
 -----------------------------------------------
   NUMBER   CELLID                    RATE      
 -----------------------------------------------
     1      (5,1,1)              -0.25992199    
 -----------------------------------------------




 HEAD WILL BE SAVED ON UNIT 1017 AT END OF TIME STEP    1, STRESS PERIOD  109


  VOLUME BUDGET FOR ENTIRE MODEL AT END OF TIME STEP    1, STRESS PERIOD 109
  ---------------------------------------------------------------------------------------------------

     CUMULATIVE VOLUME      L**3       RATES FOR THIS TIME STEP      L**3/T          PACKAGE NAME    
     ------------------                 ------------------------                     ----------------

           IN:                                      IN:
           ---                                      ---
              STO-SS =           0.0000                STO-SS =           0.0000     STORAGE                          
                 WEL =           0.0000                   WEL =           0.0000     WEL-1                            
                 GHB =           0.0000                   GHB =           0.0000     GHB-1                            
                 RCH =          16.7955                   RCH =           0.2600     RCH-1                            

            TOTAL IN =          16.7955              TOTAL IN =           0.2600

          OUT:                                     OUT:
          ----                                     ----
              STO-SS =           1.6230                STO-SS =       7.2440E-05     STORAGE                          
                 WEL =           0.0000                   WEL =           0.0000     WEL-1                            
                 GHB =          15.1725                   GHB =           0.2599     GHB-1                            
                 RCH =           0.0000                   RCH =           0.0000     RCH-1                            

           TOTAL OUT =          16.7955             TOTAL OUT =           0.2600

            IN - OUT =       1.4290E-07              IN - OUT =       2.8559E-12

 PERCENT DISCREPANCY =           0.00     PERCENT DISCREPANCY =           0.00




         TIME SUMMARY AT END OF TIME STEP    1 IN STRESS PERIOD  109
                    SECONDS     MINUTES      HOURS       DAYS        YEARS
                    -----------------------------------------------------------
   TIME STEP LENGTH  86400.      1440.0      24.000      1.0000     2.73785E-03
 STRESS PERIOD TIME  86400.      1440.0      24.000      1.0000     2.73785E-03
         TOTAL TIME 9.41760E+06 1.56960E+05  2616.0      109.00     0.29843    


end timestep


start timestep kper="110" kstp="1" mode="normal"


 OUTPUT CONTROL FOR STRESS PERIOD 110 IS REPEATED USING SETTINGS FROM A PREVIOUS STRESS PERIOD.


 STRESS PERIOD 110 IS TRANSIENT

 UBDSV1 SAVING           STO-SS ON UNIT   1018 AT TIME STEP      1, STRESS PERIOD    110
 UBDSV1 SAVING     FLOW-JA-FACE ON UNIT   1018 AT TIME STEP      1, STRESS PERIOD    110
 UBDSV06 SAVING         DATA-SAT IN MODEL MODEL            PACKAGE NPF             CONNECTED TO MODEL MODEL            PACKAGE NPF              ON UNIT   1018 AT TIME STEP      1, STRESS PERIOD    110
 UBDSV06 SAVING              GHB IN MODEL MODEL            PACKAGE MODEL           CONNECTED TO MODEL MODEL            PACKAGE GHB-1            ON UNIT   1018 AT TIME STEP      1, STRESS PERIOD    110

 GHB PACKAGE (GHB-1) FLOW RATES   PERIOD    110   STEP        1
 -----------------------------------------------
   NUMBER   CELLID                    RATE      
 -----------------------------------------------
     1      (5,1,1)              -0.25993319    
 -----------------------------------------------




 HEAD WILL BE SAVED ON UNIT 1017 AT END OF TIME STEP    1, STRESS PERIOD  110


  VOLUME BUDGET FOR ENTIRE MODEL AT END OF TIME STEP    1, STRESS PERIOD 110
  ---------------------------------------------------------------------------------------------------

     CUMULATIVE VOLUME      L**3       RATES FOR THIS TIME STEP      L**3/T          PACKAGE NAME    
     ------------------                 ------------------------                     ----------------

           IN:                                      IN:
           ---                                      ---
              STO-SS =           0.0000                STO-SS =           0.0000     STORAGE                          
                 WEL =           0.0000                   WEL =           0.0000     WEL-1                            
                 GHB =           0.0000                   GHB =           0.0000     GHB-1                            
                 RCH =          17.0555                   RCH =           0.2600     RCH-1                            

            TOTAL IN =          17.0555              TOTAL IN =           0.2600

          OUT:                                     OUT:
          ----                                     ----
              STO-SS =           1.6231                STO-SS =       6.2191E-05     STORAGE                          
                 WEL =           0.0000                   WEL =           0.0000     WEL-1                            
                 GHB =          15.4325                   GHB =           0.2599     GHB-1                            
                 RCH =           0.0000                   RCH =           0.0000     RCH-1                            

           TOTAL OUT =          17.0555             TOTAL OUT =           0.2600

            IN - OUT =       1.4290E-07              IN - OUT =       3.3230E-12

 PERCENT DISCREPANCY =           0.00     PERCENT DISCREPANCY =           0.00




         TIME SUMMARY AT END OF TIME STEP    1 IN STRESS PERIOD  110
                    SECONDS     MINUTES      HOURS       DAYS        YEARS
                    -----------------------------------------------------------
   TIME STEP LENGTH  86400.      1440.0      24.000      1.0000     2.73785E-03
 STRESS PERIOD TIME  86400.      1440.0      24.000      1.0000     2.73785E-03
         TOTAL TIME 9.50400E+06 1.58400E+05  2640.0      110.00     0.30116    


end timestep

