                                   MODFLOW 6
                U.S. GEOLOGICAL SURVEY MODULAR HYDROLOGIC MODEL
                          GROUNDWATER FLOW MODEL (GWF)
                            VERSION 6.5.0 05/23/2024

   MODFLOW 6 compiled Jun 14 2024 13:48:17 with Intel(R) Fortran Intel(R) 64
  Compiler Classic for applications running on Intel(R) 64, Version 2021.12.0
                             Build 20240222_000000

This software has been approved for release by the U.S. Geological 
Survey (USGS). Although the software has been subjected to rigorous 
review, the USGS reserves the right to update the software as needed 
pursuant to further analysis and review. No warranty, expressed or 
implied, is made by the USGS or the U.S. Government as to the 
functionality of the software and related material nor shall the 
fact of release constitute any such warranty. Furthermore, the 
software is released on condition that neither the USGS nor the U.S. 
Government shall be held liable for any damages resulting from its 
authorized or unauthorized use. Also refer to the USGS Water 
Resources Software User Rights Notice for complete use, copyright, 
and distribution information.


As a work of the United States Government, this USGS product is 
in the public domain within the United States. You can copy, 
modify, distribute, and perform the work, even for commercial 
purposes, all without asking permission. Additionally, USGS 
waives copyright and related rights in the work worldwide 
through CC0 1.0 Universal Public Domain Dedication 
(https://creativecommons.org/publicdomain/zero/1.0/).

The following GNU Lesser General Public License (LGPL) libraries
are used in this USGS product:

    SPARSKIT version 2.0
      ilut, luson, and qsplit 
      (https://www-users.cse.umn.edu/~saad/software/SPARSKIT/)

    RCM - Reverse Cuthill McKee Ordering
      (https://people.math.sc.edu/Burkardt/f_src/rcm/rcm.html)

    BLAS - Basic Linear Algebra Subprograms Level 1
      (https://people.math.sc.edu/Burkardt/f_src/blas1_d/blas1_d.html)

    SPARSEKIT - Sparse Matrix Utility Package
      amux, dperm, dvperm, rperm, and cperm
      (https://people.sc.fsu.edu/~jburkardt/f77_src/sparsekit/sparsekit.html)

The following BSD-3 License libraries are used in this USGS product:

    Modern Fortran DAG Library
      Copyright (c) 2018, Jacob Williams
      All rights reserved.
      (https://github.com/jacobwilliams/daglib)

MODFLOW 6 compiler options: /nologo /O2 /fpp /warn:declarations /warn:unused
/fpe:0 /module:obj_temp\mf6core\x64\Release\
/object:obj_temp\mf6core\x64\Release\
/Fdobj_temp\mf6core\x64\Release\vc170.pdb /libs:static /threads /c
"/Qlocation,link,C:\Program Files\Microsoft Visual
Studio\2022\Community\VC\Tools\MSVC\14.40.33807\bin\HostX64\x64" /Qm64

System command used to initiate simulation:
d:\werkmap\LHM_coupling\.pixi\envs\default\python.exe d:\werkmap\prototype_metaswap\MegaSWAP\coupled_simulation.py

MODFLOW was compiled using uniform precision.

Real Variables
  KIND: 8
  TINY (smallest non-zero value):    2.225074-308
  HUGE (largest value):    1.797693+308
  PRECISION: 15
  SIZE IN BITS: 64

Integer Variables
  KIND: 4
  HUGE (largest value): 2147483647
  SIZE IN BITS: 32

Long Integer Variables
  KIND: 8
  HUGE (largest value): 9223372036854775807
  SIZE IN BITS: 64

Logical Variables
  KIND: 4
  SIZE IN BITS: 32
 
 NAMEFILE OPTIONS:
 END NAMEFILE OPTIONS:

 DIS -- STRUCTURED GRID DISCRETIZATION PACKAGE, VERSION 2 : 3/27/2014 - INPUT READ FROM MEMPATH: __INPUT__/MODEL/DIS                               


 NPF -- NODE PROPERTY FLOW PACKAGE, VERSION 1, 3/30/2015 INPUT READ FROM MEMPATH: __INPUT__/MODEL/NPF                               


 IC -- Initial Conditions Package, Version 8, 3/28/2015 input read from mempath: __INPUT__/MODEL/IC                                


 Setting Discretization Options
    Model length unit [0=UND, 1=FEET, 2=METERS, 3=CENTIMETERS] set as 2
 End Setting Discretization Options

 Setting Discretization Dimensions
    NLAY = 5
    NROW = 1
    NCOL = 1
 End Setting Discretization Dimensions

 Setting Discretization Griddata
    DELR set from input file
    DELC set from input file
    TOP set from input file
    BOTM set from input file
 End Setting Discretization Griddata

 Setting NPF Options
    Cell-by-cell flow information will be saved to binary file whenever ICBCFL is not zero.
    Saturation will be written to DATA-SAT in budget file when requested.
 End Setting NPF Options

 Setting NPF Griddata
    ICELLTYPE set from input file
    K set from input file
    K33 not provided.  Setting K33 = K.
    K22 not provided.  Setting K22 = K.
 End Setting NPF Griddata


 GHB   -- GHB PACKAGE, VERSION 8, 2/22/2014 INPUT READ FROM MEMPATH: __INPUT__/MODEL/GHB-1                             

 PROCESSING GHB BASE OPTIONS
    FLOWS WILL BE SAVED TO BUDGET FILE SPECIFIED IN OUTPUT CONTROL
    LISTS OF GHB CELLS WILL BE PRINTED.
    GHB FLOWS WILL BE PRINTED TO LISTING FILE.
 END OF GHB BASE OPTIONS

 PROCESSING GHB OPTIONS
 END OF GHB OPTIONS

 PROCESSING GHB BASE DIMENSIONS
    MAXBOUND =       1
 END OF GHB BASE DIMENSIONS

 RCH   -- RCH PACKAGE, VERSION 8, 2/22/2014 INPUT READ FROM MEMPATH: __INPUT__/MODEL/RCH-1                             

 PROCESSING RCH BASE OPTIONS
 END OF RCH BASE OPTIONS

 PROCESSING RCH OPTIONS
 END OF RCH OPTIONS

 PROCESSING RCH BASE DIMENSIONS
    MAXBOUND =       1
 END OF RCH BASE DIMENSIONS
    STRT set from input file

 STO -- STORAGE PACKAGE, VERSION 1, 5/19/2014 INPUT READ FROM UNIT 1007


 PROCESSING STORAGE OPTIONS
    CELL-BY-CELL FLOW INFORMATION WILL BE SAVED TO BINARY FILE WHENEVER ICBCFL IS NOT ZERO.
    STORAGECOEFFICIENT OPTION:
 Read storage coefficient rather than specific storage
 END OF STORAGE OPTIONS
 PROCESSING GRIDDATA

                 ICONVERT = 0

         SPECIFIC STORAGE =  0.2000000     FOR LAYER 1

         SPECIFIC STORAGE =  0.1000000E-02 FOR LAYER 2

         SPECIFIC STORAGE =  0.1000000E-02 FOR LAYER 3

         SPECIFIC STORAGE =  0.1000000E-02 FOR LAYER 4

         SPECIFIC STORAGE =  0.1000000E-02 FOR LAYER 5
 END PROCESSING GRIDDATA
    BINARY GRID INFORMATION WILL BE WRITTEN TO:
      UNIT NUMBER: 1015
      FILE NAME: model.dis.grb

 OPENED model.dis.grb
 FILE TYPE:DATA(BINARY)   UNIT 1015   STATUS:REPLACE             
 FORMAT:UNFORMATTED            ACCESS:STREAM              
 ACTION:READWRITE           

      THE LAST TIME STEP WILL BE PRINTED
      THE LAST TIME STEP WILL BE PRINTED

 PROCESSING OC OPTIONS

    HEAD INFORMATION WILL BE WRITTEN TO:
      UNIT NUMBER: 1016
      FILE NAME: flow.hds

 OPENED flow.hds
 FILE TYPE:DATA(BINARY)   UNIT 1016   STATUS:REPLACE             
 FORMAT:UNFORMATTED            ACCESS:STREAM              
 ACTION:READWRITE           

    BUDGET INFORMATION WILL BE WRITTEN TO:
      UNIT NUMBER: 1017
      FILE NAME: flow.cbc

 OPENED flow.cbc
 FILE TYPE:DATA(BINARY)   UNIT 1017   STATUS:REPLACE             
 FORMAT:UNFORMATTED            ACCESS:STREAM              
 ACTION:READWRITE           

 END OF OC OPTIONS

start timestep kper="1" kstp="1" mode="normal"


 BEGIN READING OUTPUT CONTROL FOR STRESS PERIOD 1
      ALL TIME STEPS WILL BE SAVED
      ALL TIME STEPS WILL BE SAVED

 END READING OUTPUT CONTROL FOR STRESS PERIOD 1


 PROCESSING STORAGE PERIOD DATA
 END PROCESSING STORAGE PERIOD DATA


 STRESS PERIOD 1 IS TRANSIENT

 ----------------------------------
  GHB NO.    LAYER    ROW     COL  
 ----------------------------------
     1         5       1       1   
 ----------------------------------


 UBDSV1 SAVING           STO-SS ON UNIT   1017 AT TIME STEP      1, STRESS PERIOD      1
 UBDSV1 SAVING     FLOW-JA-FACE ON UNIT   1017 AT TIME STEP      1, STRESS PERIOD      1
 UBDSV06 SAVING         DATA-SAT IN MODEL MODEL            PACKAGE NPF             CONNECTED TO MODEL MODEL            PACKAGE NPF              ON UNIT   1017 AT TIME STEP      1, STRESS PERIOD      1
 UBDSV06 SAVING              GHB IN MODEL MODEL            PACKAGE MODEL           CONNECTED TO MODEL MODEL            PACKAGE GHB-1            ON UNIT   1017 AT TIME STEP      1, STRESS PERIOD      1

 GHB PACKAGE (GHB-1) FLOW RATES   PERIOD      1   STEP        1
 -----------------------------------------------
   NUMBER   CELLID                    RATE      
 -----------------------------------------------
     1      (5,1,1)              -1.84607883E-04
 -----------------------------------------------




 HEAD WILL BE SAVED ON UNIT 1016 AT END OF TIME STEP    1, STRESS PERIOD    1


  VOLUME BUDGET FOR ENTIRE MODEL AT END OF TIME STEP    1, STRESS PERIOD   1
  ---------------------------------------------------------------------------------------------------

     CUMULATIVE VOLUME      L**3       RATES FOR THIS TIME STEP      L**3/T          PACKAGE NAME    
     ------------------                 ------------------------                     ----------------

           IN:                                      IN:
           ---                                      ---
              STO-SS =           0.0000                STO-SS =           0.0000     STORAGE                          
                 GHB =           0.0000                   GHB =           0.0000     GHB-1                            
                 RCH =       1.7592E-02                   RCH =       1.7592E-02     RCH-1                            

            TOTAL IN =       1.7592E-02              TOTAL IN =       1.7592E-02

          OUT:                                     OUT:
          ----                                     ----
              STO-SS =       1.7407E-02                STO-SS =       1.7407E-02     STORAGE                          
                 GHB =       1.8461E-04                   GHB =       1.8461E-04     GHB-1                            
                 RCH =           0.0000                   RCH =           0.0000     RCH-1                            

           TOTAL OUT =       1.7592E-02             TOTAL OUT =       1.7592E-02

            IN - OUT =       3.3341E-14              IN - OUT =       3.3341E-14

 PERCENT DISCREPANCY =           0.00     PERCENT DISCREPANCY =           0.00




         TIME SUMMARY AT END OF TIME STEP    1 IN STRESS PERIOD    1
                    SECONDS     MINUTES      HOURS       DAYS        YEARS
                    -----------------------------------------------------------
   TIME STEP LENGTH  86400.      1440.0      24.000      1.0000     2.73785E-03
 STRESS PERIOD TIME  86400.      1440.0      24.000      1.0000     2.73785E-03
         TOTAL TIME  86400.      1440.0      24.000      1.0000     2.73785E-03


end timestep


start timestep kper="2" kstp="1" mode="normal"


 END OF FILE DETECTED IN OUTPUT CONTROL.
 CURRENT OUTPUT CONTROL SETTINGS WILL BE 
 REPEATED UNTIL THE END OF THE SIMULATION.

 OUTPUT CONTROL FOR STRESS PERIOD 2 IS REPEATED USING SETTINGS FROM A PREVIOUS STRESS PERIOD.


 STRESS PERIOD 2 IS TRANSIENT

 UBDSV1 SAVING           STO-SS ON UNIT   1017 AT TIME STEP      1, STRESS PERIOD      2
 UBDSV1 SAVING     FLOW-JA-FACE ON UNIT   1017 AT TIME STEP      1, STRESS PERIOD      2
 UBDSV06 SAVING         DATA-SAT IN MODEL MODEL            PACKAGE NPF             CONNECTED TO MODEL MODEL            PACKAGE NPF              ON UNIT   1017 AT TIME STEP      1, STRESS PERIOD      2
 UBDSV06 SAVING              GHB IN MODEL MODEL            PACKAGE MODEL           CONNECTED TO MODEL MODEL            PACKAGE GHB-1            ON UNIT   1017 AT TIME STEP      1, STRESS PERIOD      2

 GHB PACKAGE (GHB-1) FLOW RATES   PERIOD      2   STEP        1
 -----------------------------------------------
   NUMBER   CELLID                    RATE      
 -----------------------------------------------
     1      (5,1,1)              -2.50471543E-04
 -----------------------------------------------




 HEAD WILL BE SAVED ON UNIT 1016 AT END OF TIME STEP    1, STRESS PERIOD    2


  VOLUME BUDGET FOR ENTIRE MODEL AT END OF TIME STEP    1, STRESS PERIOD   2
  ---------------------------------------------------------------------------------------------------

     CUMULATIVE VOLUME      L**3       RATES FOR THIS TIME STEP      L**3/T          PACKAGE NAME    
     ------------------                 ------------------------                     ----------------

           IN:                                      IN:
           ---                                      ---
              STO-SS =           0.0000                STO-SS =           0.0000     STORAGE                          
                 GHB =           0.0000                   GHB =           0.0000     GHB-1                            
                 RCH =       3.5173E-02                   RCH =       1.7581E-02     RCH-1                            

            TOTAL IN =       3.5173E-02              TOTAL IN =       1.7581E-02

          OUT:                                     OUT:
          ----                                     ----
              STO-SS =       3.4738E-02                STO-SS =       1.7331E-02     STORAGE                          
                 GHB =       4.3508E-04                   GHB =       2.5047E-04     GHB-1                            
                 RCH =           0.0000                   RCH =           0.0000     RCH-1                            

           TOTAL OUT =       3.5173E-02             TOTAL OUT =       1.7581E-02

            IN - OUT =       4.8745E-10              IN - OUT =       4.8741E-10

 PERCENT DISCREPANCY =           0.00     PERCENT DISCREPANCY =           0.00




         TIME SUMMARY AT END OF TIME STEP    1 IN STRESS PERIOD    2
                    SECONDS     MINUTES      HOURS       DAYS        YEARS
                    -----------------------------------------------------------
   TIME STEP LENGTH  86400.      1440.0      24.000      1.0000     2.73785E-03
 STRESS PERIOD TIME  86400.      1440.0      24.000      1.0000     2.73785E-03
         TOTAL TIME 1.72800E+05  2880.0      48.000      2.0000     5.47570E-03


end timestep


start timestep kper="3" kstp="1" mode="normal"


 OUTPUT CONTROL FOR STRESS PERIOD 3 IS REPEATED USING SETTINGS FROM A PREVIOUS STRESS PERIOD.


 STRESS PERIOD 3 IS TRANSIENT

 UBDSV1 SAVING           STO-SS ON UNIT   1017 AT TIME STEP      1, STRESS PERIOD      3
 UBDSV1 SAVING     FLOW-JA-FACE ON UNIT   1017 AT TIME STEP      1, STRESS PERIOD      3
 UBDSV06 SAVING         DATA-SAT IN MODEL MODEL            PACKAGE NPF             CONNECTED TO MODEL MODEL            PACKAGE NPF              ON UNIT   1017 AT TIME STEP      1, STRESS PERIOD      3
 UBDSV06 SAVING              GHB IN MODEL MODEL            PACKAGE MODEL           CONNECTED TO MODEL MODEL            PACKAGE GHB-1            ON UNIT   1017 AT TIME STEP      1, STRESS PERIOD      3

 GHB PACKAGE (GHB-1) FLOW RATES   PERIOD      3   STEP        1
 -----------------------------------------------
   NUMBER   CELLID                    RATE      
 -----------------------------------------------
     1      (5,1,1)              -2.95926130E-04
 -----------------------------------------------




 HEAD WILL BE SAVED ON UNIT 1016 AT END OF TIME STEP    1, STRESS PERIOD    3


  VOLUME BUDGET FOR ENTIRE MODEL AT END OF TIME STEP    1, STRESS PERIOD   3
  ---------------------------------------------------------------------------------------------------

     CUMULATIVE VOLUME      L**3       RATES FOR THIS TIME STEP      L**3/T          PACKAGE NAME    
     ------------------                 ------------------------                     ----------------

           IN:                                      IN:
           ---                                      ---
              STO-SS =           0.0000                STO-SS =           0.0000     STORAGE                          
                 GHB =           0.0000                   GHB =           0.0000     GHB-1                            
                 RCH =       5.2768E-02                   RCH =       1.7595E-02     RCH-1                            

            TOTAL IN =       5.2768E-02              TOTAL IN =       1.7595E-02

          OUT:                                     OUT:
          ----                                     ----
              STO-SS =       5.2037E-02                STO-SS =       1.7299E-02     STORAGE                          
                 GHB =       7.3101E-04                   GHB =       2.9593E-04     GHB-1                            
                 RCH =           0.0000                   RCH =           0.0000     RCH-1                            

           TOTAL OUT =       5.2768E-02             TOTAL OUT =       1.7595E-02

            IN - OUT =       1.3127E-09              IN - OUT =       8.2524E-10

 PERCENT DISCREPANCY =           0.00     PERCENT DISCREPANCY =           0.00




         TIME SUMMARY AT END OF TIME STEP    1 IN STRESS PERIOD    3
                    SECONDS     MINUTES      HOURS       DAYS        YEARS
                    -----------------------------------------------------------
   TIME STEP LENGTH  86400.      1440.0      24.000      1.0000     2.73785E-03
 STRESS PERIOD TIME  86400.      1440.0      24.000      1.0000     2.73785E-03
         TOTAL TIME 2.59200E+05  4320.0      72.000      3.0000     8.21355E-03


end timestep


start timestep kper="4" kstp="1" mode="normal"


 OUTPUT CONTROL FOR STRESS PERIOD 4 IS REPEATED USING SETTINGS FROM A PREVIOUS STRESS PERIOD.


 STRESS PERIOD 4 IS TRANSIENT

 UBDSV1 SAVING           STO-SS ON UNIT   1017 AT TIME STEP      1, STRESS PERIOD      4
 UBDSV1 SAVING     FLOW-JA-FACE ON UNIT   1017 AT TIME STEP      1, STRESS PERIOD      4
 UBDSV06 SAVING         DATA-SAT IN MODEL MODEL            PACKAGE NPF             CONNECTED TO MODEL MODEL            PACKAGE NPF              ON UNIT   1017 AT TIME STEP      1, STRESS PERIOD      4
 UBDSV06 SAVING              GHB IN MODEL MODEL            PACKAGE MODEL           CONNECTED TO MODEL MODEL            PACKAGE GHB-1            ON UNIT   1017 AT TIME STEP      1, STRESS PERIOD      4

 GHB PACKAGE (GHB-1) FLOW RATES   PERIOD      4   STEP        1
 -----------------------------------------------
   NUMBER   CELLID                    RATE      
 -----------------------------------------------
     1      (5,1,1)              -3.41500113E-04
 -----------------------------------------------




 HEAD WILL BE SAVED ON UNIT 1016 AT END OF TIME STEP    1, STRESS PERIOD    4


  VOLUME BUDGET FOR ENTIRE MODEL AT END OF TIME STEP    1, STRESS PERIOD   4
  ---------------------------------------------------------------------------------------------------

     CUMULATIVE VOLUME      L**3       RATES FOR THIS TIME STEP      L**3/T          PACKAGE NAME    
     ------------------                 ------------------------                     ----------------

           IN:                                      IN:
           ---                                      ---
              STO-SS =           0.0000                STO-SS =           0.0000     STORAGE                          
                 GHB =           0.0000                   GHB =           0.0000     GHB-1                            
                 RCH =       7.0384E-02                   RCH =       1.7617E-02     RCH-1                            

            TOTAL IN =       7.0384E-02              TOTAL IN =       1.7617E-02

          OUT:                                     OUT:
          ----                                     ----
              STO-SS =       6.9312E-02                STO-SS =       1.7275E-02     STORAGE                          
                 GHB =       1.0725E-03                   GHB =       3.4150E-04     GHB-1                            
                 RCH =           0.0000                   RCH =           0.0000     RCH-1                            

           TOTAL OUT =       7.0384E-02             TOTAL OUT =       1.7617E-02

            IN - OUT =       2.5074E-09              IN - OUT =       1.1947E-09

 PERCENT DISCREPANCY =           0.00     PERCENT DISCREPANCY =           0.00




         TIME SUMMARY AT END OF TIME STEP    1 IN STRESS PERIOD    4
                    SECONDS     MINUTES      HOURS       DAYS        YEARS
                    -----------------------------------------------------------
   TIME STEP LENGTH  86400.      1440.0      24.000      1.0000     2.73785E-03
 STRESS PERIOD TIME  86400.      1440.0      24.000      1.0000     2.73785E-03
         TOTAL TIME 3.45600E+05  5760.0      96.000      4.0000     1.09514E-02


end timestep


start timestep kper="5" kstp="1" mode="normal"


 OUTPUT CONTROL FOR STRESS PERIOD 5 IS REPEATED USING SETTINGS FROM A PREVIOUS STRESS PERIOD.


 STRESS PERIOD 5 IS TRANSIENT

 UBDSV1 SAVING           STO-SS ON UNIT   1017 AT TIME STEP      1, STRESS PERIOD      5
 UBDSV1 SAVING     FLOW-JA-FACE ON UNIT   1017 AT TIME STEP      1, STRESS PERIOD      5
 UBDSV06 SAVING         DATA-SAT IN MODEL MODEL            PACKAGE NPF             CONNECTED TO MODEL MODEL            PACKAGE NPF              ON UNIT   1017 AT TIME STEP      1, STRESS PERIOD      5
 UBDSV06 SAVING              GHB IN MODEL MODEL            PACKAGE MODEL           CONNECTED TO MODEL MODEL            PACKAGE GHB-1            ON UNIT   1017 AT TIME STEP      1, STRESS PERIOD      5

 GHB PACKAGE (GHB-1) FLOW RATES   PERIOD      5   STEP        1
 -----------------------------------------------
   NUMBER   CELLID                    RATE      
 -----------------------------------------------
     1      (5,1,1)              -3.90251118E-04
 -----------------------------------------------




 HEAD WILL BE SAVED ON UNIT 1016 AT END OF TIME STEP    1, STRESS PERIOD    5


  VOLUME BUDGET FOR ENTIRE MODEL AT END OF TIME STEP    1, STRESS PERIOD   5
  ---------------------------------------------------------------------------------------------------

     CUMULATIVE VOLUME      L**3       RATES FOR THIS TIME STEP      L**3/T          PACKAGE NAME    
     ------------------                 ------------------------                     ----------------

           IN:                                      IN:
           ---                                      ---
              STO-SS =           0.0000                STO-SS =           0.0000     STORAGE                          
                 GHB =           0.0000                   GHB =           0.0000     GHB-1                            
                 RCH =       8.8036E-02                   RCH =       1.7652E-02     RCH-1                            

            TOTAL IN =       8.8036E-02              TOTAL IN =       1.7652E-02

          OUT:                                     OUT:
          ----                                     ----
              STO-SS =       8.6574E-02                STO-SS =       1.7262E-02     STORAGE                          
                 GHB =       1.4628E-03                   GHB =       3.9025E-04     GHB-1                            
                 RCH =           0.0000                   RCH =           0.0000     RCH-1                            

           TOTAL OUT =       8.8036E-02             TOTAL OUT =       1.7652E-02

            IN - OUT =       4.2170E-09              IN - OUT =       1.7097E-09

 PERCENT DISCREPANCY =           0.00     PERCENT DISCREPANCY =           0.00




         TIME SUMMARY AT END OF TIME STEP    1 IN STRESS PERIOD    5
                    SECONDS     MINUTES      HOURS       DAYS        YEARS
                    -----------------------------------------------------------
   TIME STEP LENGTH  86400.      1440.0      24.000      1.0000     2.73785E-03
 STRESS PERIOD TIME  86400.      1440.0      24.000      1.0000     2.73785E-03
         TOTAL TIME 4.32000E+05  7200.0      120.00      5.0000     1.36893E-02


end timestep


start timestep kper="6" kstp="1" mode="normal"


 OUTPUT CONTROL FOR STRESS PERIOD 6 IS REPEATED USING SETTINGS FROM A PREVIOUS STRESS PERIOD.


 STRESS PERIOD 6 IS TRANSIENT

 UBDSV1 SAVING           STO-SS ON UNIT   1017 AT TIME STEP      1, STRESS PERIOD      6
 UBDSV1 SAVING     FLOW-JA-FACE ON UNIT   1017 AT TIME STEP      1, STRESS PERIOD      6
 UBDSV06 SAVING         DATA-SAT IN MODEL MODEL            PACKAGE NPF             CONNECTED TO MODEL MODEL            PACKAGE NPF              ON UNIT   1017 AT TIME STEP      1, STRESS PERIOD      6
 UBDSV06 SAVING              GHB IN MODEL MODEL            PACKAGE MODEL           CONNECTED TO MODEL MODEL            PACKAGE GHB-1            ON UNIT   1017 AT TIME STEP      1, STRESS PERIOD      6

 GHB PACKAGE (GHB-1) FLOW RATES   PERIOD      6   STEP        1
 -----------------------------------------------
   NUMBER   CELLID                    RATE      
 -----------------------------------------------
     1      (5,1,1)              -4.42530322E-04
 -----------------------------------------------




 HEAD WILL BE SAVED ON UNIT 1016 AT END OF TIME STEP    1, STRESS PERIOD    6


  VOLUME BUDGET FOR ENTIRE MODEL AT END OF TIME STEP    1, STRESS PERIOD   6
  ---------------------------------------------------------------------------------------------------

     CUMULATIVE VOLUME      L**3       RATES FOR THIS TIME STEP      L**3/T          PACKAGE NAME    
     ------------------                 ------------------------                     ----------------

           IN:                                      IN:
           ---                                      ---
              STO-SS =           0.0000                STO-SS =           0.0000     STORAGE                          
                 GHB =           0.0000                   GHB =           0.0000     GHB-1                            
                 RCH =           0.1057                   RCH =       1.7701E-02     RCH-1                            

            TOTAL IN =           0.1057              TOTAL IN =       1.7701E-02

          OUT:                                     OUT:
          ----                                     ----
              STO-SS =           0.1038                STO-SS =       1.7258E-02     STORAGE                          
                 GHB =       1.9053E-03                   GHB =       4.4253E-04     GHB-1                            
                 RCH =           0.0000                   RCH =           0.0000     RCH-1                            

           TOTAL OUT =           0.1057             TOTAL OUT =       1.7701E-02

            IN - OUT =       6.6145E-09              IN - OUT =       2.3975E-09

 PERCENT DISCREPANCY =           0.00     PERCENT DISCREPANCY =           0.00




         TIME SUMMARY AT END OF TIME STEP    1 IN STRESS PERIOD    6
                    SECONDS     MINUTES      HOURS       DAYS        YEARS
                    -----------------------------------------------------------
   TIME STEP LENGTH  86400.      1440.0      24.000      1.0000     2.73785E-03
 STRESS PERIOD TIME  86400.      1440.0      24.000      1.0000     2.73785E-03
         TOTAL TIME 5.18400E+05  8640.0      144.00      6.0000     1.64271E-02


end timestep


start timestep kper="7" kstp="1" mode="normal"


 OUTPUT CONTROL FOR STRESS PERIOD 7 IS REPEATED USING SETTINGS FROM A PREVIOUS STRESS PERIOD.


 STRESS PERIOD 7 IS TRANSIENT

 UBDSV1 SAVING           STO-SS ON UNIT   1017 AT TIME STEP      1, STRESS PERIOD      7
 UBDSV1 SAVING     FLOW-JA-FACE ON UNIT   1017 AT TIME STEP      1, STRESS PERIOD      7
 UBDSV06 SAVING         DATA-SAT IN MODEL MODEL            PACKAGE NPF             CONNECTED TO MODEL MODEL            PACKAGE NPF              ON UNIT   1017 AT TIME STEP      1, STRESS PERIOD      7
 UBDSV06 SAVING              GHB IN MODEL MODEL            PACKAGE MODEL           CONNECTED TO MODEL MODEL            PACKAGE GHB-1            ON UNIT   1017 AT TIME STEP      1, STRESS PERIOD      7

 GHB PACKAGE (GHB-1) FLOW RATES   PERIOD      7   STEP        1
 -----------------------------------------------
   NUMBER   CELLID                    RATE      
 -----------------------------------------------
     1      (5,1,1)              -4.98266885E-04
 -----------------------------------------------




 HEAD WILL BE SAVED ON UNIT 1016 AT END OF TIME STEP    1, STRESS PERIOD    7


  VOLUME BUDGET FOR ENTIRE MODEL AT END OF TIME STEP    1, STRESS PERIOD   7
  ---------------------------------------------------------------------------------------------------

     CUMULATIVE VOLUME      L**3       RATES FOR THIS TIME STEP      L**3/T          PACKAGE NAME    
     ------------------                 ------------------------                     ----------------

           IN:                                      IN:
           ---                                      ---
              STO-SS =           0.0000                STO-SS =           0.0000     STORAGE                          
                 GHB =           0.0000                   GHB =           0.0000     GHB-1                            
                 RCH =           0.1235                   RCH =       1.7765E-02     RCH-1                            

            TOTAL IN =           0.1235              TOTAL IN =       1.7765E-02

          OUT:                                     OUT:
          ----                                     ----
              STO-SS =           0.1211                STO-SS =       1.7267E-02     STORAGE                          
                 GHB =       2.4036E-03                   GHB =       4.9827E-04     GHB-1                            
                 RCH =           0.0000                   RCH =           0.0000     RCH-1                            

           TOTAL OUT =           0.1235             TOTAL OUT =       1.7765E-02

            IN - OUT =       9.9770E-09              IN - OUT =       3.3625E-09

 PERCENT DISCREPANCY =           0.00     PERCENT DISCREPANCY =           0.00




         TIME SUMMARY AT END OF TIME STEP    1 IN STRESS PERIOD    7
                    SECONDS     MINUTES      HOURS       DAYS        YEARS
                    -----------------------------------------------------------
   TIME STEP LENGTH  86400.      1440.0      24.000      1.0000     2.73785E-03
 STRESS PERIOD TIME  86400.      1440.0      24.000      1.0000     2.73785E-03
         TOTAL TIME 6.04800E+05  10080.      168.00      7.0000     1.91650E-02


end timestep


start timestep kper="8" kstp="1" mode="normal"


 OUTPUT CONTROL FOR STRESS PERIOD 8 IS REPEATED USING SETTINGS FROM A PREVIOUS STRESS PERIOD.


 STRESS PERIOD 8 IS TRANSIENT

 UBDSV1 SAVING           STO-SS ON UNIT   1017 AT TIME STEP      1, STRESS PERIOD      8
 UBDSV1 SAVING     FLOW-JA-FACE ON UNIT   1017 AT TIME STEP      1, STRESS PERIOD      8
 UBDSV06 SAVING         DATA-SAT IN MODEL MODEL            PACKAGE NPF             CONNECTED TO MODEL MODEL            PACKAGE NPF              ON UNIT   1017 AT TIME STEP      1, STRESS PERIOD      8
 UBDSV06 SAVING              GHB IN MODEL MODEL            PACKAGE MODEL           CONNECTED TO MODEL MODEL            PACKAGE GHB-1            ON UNIT   1017 AT TIME STEP      1, STRESS PERIOD      8

 GHB PACKAGE (GHB-1) FLOW RATES   PERIOD      8   STEP        1
 -----------------------------------------------
   NUMBER   CELLID                    RATE      
 -----------------------------------------------
     1      (5,1,1)              -5.57304407E-04
 -----------------------------------------------




 HEAD WILL BE SAVED ON UNIT 1016 AT END OF TIME STEP    1, STRESS PERIOD    8


  VOLUME BUDGET FOR ENTIRE MODEL AT END OF TIME STEP    1, STRESS PERIOD   8
  ---------------------------------------------------------------------------------------------------

     CUMULATIVE VOLUME      L**3       RATES FOR THIS TIME STEP      L**3/T          PACKAGE NAME    
     ------------------                 ------------------------                     ----------------

           IN:                                      IN:
           ---                                      ---
              STO-SS =           0.0000                STO-SS =           0.0000     STORAGE                          
                 GHB =           0.0000                   GHB =           0.0000     GHB-1                            
                 RCH =           0.1413                   RCH =       1.7846E-02     RCH-1                            

            TOTAL IN =           0.1413              TOTAL IN =       1.7846E-02

          OUT:                                     OUT:
          ----                                     ----
              STO-SS =           0.1384                STO-SS =       1.7289E-02     STORAGE                          
                 GHB =       2.9609E-03                   GHB =       5.5730E-04     GHB-1                            
                 RCH =           0.0000                   RCH =           0.0000     RCH-1                            

           TOTAL OUT =           0.1413             TOTAL OUT =       1.7846E-02

            IN - OUT =       1.4317E-08              IN - OUT =       4.3402E-09

 PERCENT DISCREPANCY =           0.00     PERCENT DISCREPANCY =           0.00




         TIME SUMMARY AT END OF TIME STEP    1 IN STRESS PERIOD    8
                    SECONDS     MINUTES      HOURS       DAYS        YEARS
                    -----------------------------------------------------------
   TIME STEP LENGTH  86400.      1440.0      24.000      1.0000     2.73785E-03
 STRESS PERIOD TIME  86400.      1440.0      24.000      1.0000     2.73785E-03
         TOTAL TIME 6.91200E+05  11520.      192.00      8.0000     2.19028E-02


end timestep


start timestep kper="9" kstp="1" mode="normal"


 OUTPUT CONTROL FOR STRESS PERIOD 9 IS REPEATED USING SETTINGS FROM A PREVIOUS STRESS PERIOD.


 STRESS PERIOD 9 IS TRANSIENT

 UBDSV1 SAVING           STO-SS ON UNIT   1017 AT TIME STEP      1, STRESS PERIOD      9
 UBDSV1 SAVING     FLOW-JA-FACE ON UNIT   1017 AT TIME STEP      1, STRESS PERIOD      9
 UBDSV06 SAVING         DATA-SAT IN MODEL MODEL            PACKAGE NPF             CONNECTED TO MODEL MODEL            PACKAGE NPF              ON UNIT   1017 AT TIME STEP      1, STRESS PERIOD      9
 UBDSV06 SAVING              GHB IN MODEL MODEL            PACKAGE MODEL           CONNECTED TO MODEL MODEL            PACKAGE GHB-1            ON UNIT   1017 AT TIME STEP      1, STRESS PERIOD      9

 GHB PACKAGE (GHB-1) FLOW RATES   PERIOD      9   STEP        1
 -----------------------------------------------
   NUMBER   CELLID                    RATE      
 -----------------------------------------------
     1      (5,1,1)              -6.25308543E-04
 -----------------------------------------------




 HEAD WILL BE SAVED ON UNIT 1016 AT END OF TIME STEP    1, STRESS PERIOD    9


  VOLUME BUDGET FOR ENTIRE MODEL AT END OF TIME STEP    1, STRESS PERIOD   9
  ---------------------------------------------------------------------------------------------------

     CUMULATIVE VOLUME      L**3       RATES FOR THIS TIME STEP      L**3/T          PACKAGE NAME    
     ------------------                 ------------------------                     ----------------

           IN:                                      IN:
           ---                                      ---
              STO-SS =           0.0000                STO-SS =           0.0000     STORAGE                          
                 GHB =           0.0000                   GHB =           0.0000     GHB-1                            
                 RCH =           0.1593                   RCH =       1.7947E-02     RCH-1                            

            TOTAL IN =           0.1593              TOTAL IN =       1.7947E-02

          OUT:                                     OUT:
          ----                                     ----
              STO-SS =           0.1557                STO-SS =       1.7322E-02     STORAGE                          
                 GHB =       3.5862E-03                   GHB =       6.2531E-04     GHB-1                            
                 RCH =           0.0000                   RCH =           0.0000     RCH-1                            

           TOTAL OUT =           0.1593             TOTAL OUT =       1.7947E-02

            IN - OUT =       1.8877E-08              IN - OUT =       4.5601E-09

 PERCENT DISCREPANCY =           0.00     PERCENT DISCREPANCY =           0.00




         TIME SUMMARY AT END OF TIME STEP    1 IN STRESS PERIOD    9
                    SECONDS     MINUTES      HOURS       DAYS        YEARS
                    -----------------------------------------------------------
   TIME STEP LENGTH  86400.      1440.0      24.000      1.0000     2.73785E-03
 STRESS PERIOD TIME  86400.      1440.0      24.000      1.0000     2.73785E-03
         TOTAL TIME 7.77600E+05  12960.      216.00      9.0000     2.46407E-02


end timestep


start timestep kper="10" kstp="1" mode="normal"


 OUTPUT CONTROL FOR STRESS PERIOD 10 IS REPEATED USING SETTINGS FROM A PREVIOUS STRESS PERIOD.


 STRESS PERIOD 10 IS TRANSIENT

 UBDSV1 SAVING           STO-SS ON UNIT   1017 AT TIME STEP      1, STRESS PERIOD     10
 UBDSV1 SAVING     FLOW-JA-FACE ON UNIT   1017 AT TIME STEP      1, STRESS PERIOD     10
 UBDSV06 SAVING         DATA-SAT IN MODEL MODEL            PACKAGE NPF             CONNECTED TO MODEL MODEL            PACKAGE NPF              ON UNIT   1017 AT TIME STEP      1, STRESS PERIOD     10
 UBDSV06 SAVING              GHB IN MODEL MODEL            PACKAGE MODEL           CONNECTED TO MODEL MODEL            PACKAGE GHB-1            ON UNIT   1017 AT TIME STEP      1, STRESS PERIOD     10

 GHB PACKAGE (GHB-1) FLOW RATES   PERIOD     10   STEP        1
 -----------------------------------------------
   NUMBER   CELLID                    RATE      
 -----------------------------------------------
     1      (5,1,1)              -7.16039837E-04
 -----------------------------------------------




 HEAD WILL BE SAVED ON UNIT 1016 AT END OF TIME STEP    1, STRESS PERIOD   10


  VOLUME BUDGET FOR ENTIRE MODEL AT END OF TIME STEP    1, STRESS PERIOD  10
  ---------------------------------------------------------------------------------------------------

     CUMULATIVE VOLUME      L**3       RATES FOR THIS TIME STEP      L**3/T          PACKAGE NAME    
     ------------------                 ------------------------                     ----------------

           IN:                                      IN:
           ---                                      ---
              STO-SS =           0.0000                STO-SS =           0.0000     STORAGE                          
                 GHB =           0.0000                   GHB =           0.0000     GHB-1                            
                 RCH =           0.1774                   RCH =       1.8071E-02     RCH-1                            

            TOTAL IN =           0.1774              TOTAL IN =       1.8071E-02

          OUT:                                     OUT:
          ----                                     ----
              STO-SS =           0.1731                STO-SS =       1.7355E-02     STORAGE                          
                 GHB =       4.3022E-03                   GHB =       7.1604E-04     GHB-1                            
                 RCH =           0.0000                   RCH =           0.0000     RCH-1                            

           TOTAL OUT =           0.1774             TOTAL OUT =       1.8071E-02

            IN - OUT =       2.3674E-08              IN - OUT =       4.7964E-09

 PERCENT DISCREPANCY =           0.00     PERCENT DISCREPANCY =           0.00




         TIME SUMMARY AT END OF TIME STEP    1 IN STRESS PERIOD   10
                    SECONDS     MINUTES      HOURS       DAYS        YEARS
                    -----------------------------------------------------------
   TIME STEP LENGTH  86400.      1440.0      24.000      1.0000     2.73785E-03
 STRESS PERIOD TIME  86400.      1440.0      24.000      1.0000     2.73785E-03
         TOTAL TIME 8.64000E+05  14400.      240.00      10.000     2.73785E-02


end timestep


start timestep kper="11" kstp="1" mode="normal"


 OUTPUT CONTROL FOR STRESS PERIOD 11 IS REPEATED USING SETTINGS FROM A PREVIOUS STRESS PERIOD.


 STRESS PERIOD 11 IS TRANSIENT

 UBDSV1 SAVING           STO-SS ON UNIT   1017 AT TIME STEP      1, STRESS PERIOD     11
 UBDSV1 SAVING     FLOW-JA-FACE ON UNIT   1017 AT TIME STEP      1, STRESS PERIOD     11
 UBDSV06 SAVING         DATA-SAT IN MODEL MODEL            PACKAGE NPF             CONNECTED TO MODEL MODEL            PACKAGE NPF              ON UNIT   1017 AT TIME STEP      1, STRESS PERIOD     11
 UBDSV06 SAVING              GHB IN MODEL MODEL            PACKAGE MODEL           CONNECTED TO MODEL MODEL            PACKAGE GHB-1            ON UNIT   1017 AT TIME STEP      1, STRESS PERIOD     11

 GHB PACKAGE (GHB-1) FLOW RATES   PERIOD     11   STEP        1
 -----------------------------------------------
   NUMBER   CELLID                    RATE      
 -----------------------------------------------
     1      (5,1,1)              -8.16722790E-04
 -----------------------------------------------




 HEAD WILL BE SAVED ON UNIT 1016 AT END OF TIME STEP    1, STRESS PERIOD   11


  VOLUME BUDGET FOR ENTIRE MODEL AT END OF TIME STEP    1, STRESS PERIOD  11
  ---------------------------------------------------------------------------------------------------

     CUMULATIVE VOLUME      L**3       RATES FOR THIS TIME STEP      L**3/T          PACKAGE NAME    
     ------------------                 ------------------------                     ----------------

           IN:                                      IN:
           ---                                      ---
              STO-SS =           0.0000                STO-SS =           0.0000     STORAGE                          
                 GHB =           0.0000                   GHB =           0.0000     GHB-1                            
                 RCH =           0.1956                   RCH =       1.8220E-02     RCH-1                            

            TOTAL IN =           0.1956              TOTAL IN =       1.8220E-02

          OUT:                                     OUT:
          ----                                     ----
              STO-SS =           0.1905                STO-SS =       1.7404E-02     STORAGE                          
                 GHB =       5.1189E-03                   GHB =       8.1672E-04     GHB-1                            
                 RCH =           0.0000                   RCH =           0.0000     RCH-1                            

           TOTAL OUT =           0.1956             TOTAL OUT =       1.8220E-02

            IN - OUT =       2.9529E-08              IN - OUT =       5.8555E-09

 PERCENT DISCREPANCY =           0.00     PERCENT DISCREPANCY =           0.00




         TIME SUMMARY AT END OF TIME STEP    1 IN STRESS PERIOD   11
                    SECONDS     MINUTES      HOURS       DAYS        YEARS
                    -----------------------------------------------------------
   TIME STEP LENGTH  86400.      1440.0      24.000      1.0000     2.73785E-03
 STRESS PERIOD TIME  86400.      1440.0      24.000      1.0000     2.73785E-03
         TOTAL TIME 9.50400E+05  15840.      264.00      11.000     3.01164E-02


end timestep


start timestep kper="12" kstp="1" mode="normal"


 OUTPUT CONTROL FOR STRESS PERIOD 12 IS REPEATED USING SETTINGS FROM A PREVIOUS STRESS PERIOD.


 STRESS PERIOD 12 IS TRANSIENT

 UBDSV1 SAVING           STO-SS ON UNIT   1017 AT TIME STEP      1, STRESS PERIOD     12
 UBDSV1 SAVING     FLOW-JA-FACE ON UNIT   1017 AT TIME STEP      1, STRESS PERIOD     12
 UBDSV06 SAVING         DATA-SAT IN MODEL MODEL            PACKAGE NPF             CONNECTED TO MODEL MODEL            PACKAGE NPF              ON UNIT   1017 AT TIME STEP      1, STRESS PERIOD     12
 UBDSV06 SAVING              GHB IN MODEL MODEL            PACKAGE MODEL           CONNECTED TO MODEL MODEL            PACKAGE GHB-1            ON UNIT   1017 AT TIME STEP      1, STRESS PERIOD     12

 GHB PACKAGE (GHB-1) FLOW RATES   PERIOD     12   STEP        1
 -----------------------------------------------
   NUMBER   CELLID                    RATE      
 -----------------------------------------------
     1      (5,1,1)              -9.24552681E-04
 -----------------------------------------------




 HEAD WILL BE SAVED ON UNIT 1016 AT END OF TIME STEP    1, STRESS PERIOD   12


  VOLUME BUDGET FOR ENTIRE MODEL AT END OF TIME STEP    1, STRESS PERIOD  12
  ---------------------------------------------------------------------------------------------------

     CUMULATIVE VOLUME      L**3       RATES FOR THIS TIME STEP      L**3/T          PACKAGE NAME    
     ------------------                 ------------------------                     ----------------

           IN:                                      IN:
           ---                                      ---
              STO-SS =           0.0000                STO-SS =           0.0000     STORAGE                          
                 GHB =           0.0000                   GHB =           0.0000     GHB-1                            
                 RCH =           0.2140                   RCH =       1.8401E-02     RCH-1                            

            TOTAL IN =           0.2140              TOTAL IN =       1.8401E-02

          OUT:                                     OUT:
          ----                                     ----
              STO-SS =           0.2079                STO-SS =       1.7477E-02     STORAGE                          
                 GHB =       6.0435E-03                   GHB =       9.2455E-04     GHB-1                            
                 RCH =           0.0000                   RCH =           0.0000     RCH-1                            

           TOTAL OUT =           0.2140             TOTAL OUT =       1.8401E-02

            IN - OUT =       3.5392E-08              IN - OUT =       5.8628E-09

 PERCENT DISCREPANCY =           0.00     PERCENT DISCREPANCY =           0.00




         TIME SUMMARY AT END OF TIME STEP    1 IN STRESS PERIOD   12
                    SECONDS     MINUTES      HOURS       DAYS        YEARS
                    -----------------------------------------------------------
   TIME STEP LENGTH  86400.      1440.0      24.000      1.0000     2.73785E-03
 STRESS PERIOD TIME  86400.      1440.0      24.000      1.0000     2.73785E-03
         TOTAL TIME 1.03680E+06  17280.      288.00      12.000     3.28542E-02


end timestep


start timestep kper="13" kstp="1" mode="normal"


 OUTPUT CONTROL FOR STRESS PERIOD 13 IS REPEATED USING SETTINGS FROM A PREVIOUS STRESS PERIOD.


 STRESS PERIOD 13 IS TRANSIENT

 UBDSV1 SAVING           STO-SS ON UNIT   1017 AT TIME STEP      1, STRESS PERIOD     13
 UBDSV1 SAVING     FLOW-JA-FACE ON UNIT   1017 AT TIME STEP      1, STRESS PERIOD     13
 UBDSV06 SAVING         DATA-SAT IN MODEL MODEL            PACKAGE NPF             CONNECTED TO MODEL MODEL            PACKAGE NPF              ON UNIT   1017 AT TIME STEP      1, STRESS PERIOD     13
 UBDSV06 SAVING              GHB IN MODEL MODEL            PACKAGE MODEL           CONNECTED TO MODEL MODEL            PACKAGE GHB-1            ON UNIT   1017 AT TIME STEP      1, STRESS PERIOD     13

 GHB PACKAGE (GHB-1) FLOW RATES   PERIOD     13   STEP        1
 -----------------------------------------------
   NUMBER   CELLID                    RATE      
 -----------------------------------------------
     1      (5,1,1)              -1.03894589E-03
 -----------------------------------------------




 HEAD WILL BE SAVED ON UNIT 1016 AT END OF TIME STEP    1, STRESS PERIOD   13


  VOLUME BUDGET FOR ENTIRE MODEL AT END OF TIME STEP    1, STRESS PERIOD  13
  ---------------------------------------------------------------------------------------------------

     CUMULATIVE VOLUME      L**3       RATES FOR THIS TIME STEP      L**3/T          PACKAGE NAME    
     ------------------                 ------------------------                     ----------------

           IN:                                      IN:
           ---                                      ---
              STO-SS =           0.0000                STO-SS =           0.0000     STORAGE                          
                 GHB =           0.0000                   GHB =           0.0000     GHB-1                            
                 RCH =           0.2326                   RCH =       1.8615E-02     RCH-1                            

            TOTAL IN =           0.2326              TOTAL IN =       1.8615E-02

          OUT:                                     OUT:
          ----                                     ----
              STO-SS =           0.2255                STO-SS =       1.7576E-02     STORAGE                          
                 GHB =       7.0824E-03                   GHB =       1.0389E-03     GHB-1                            
                 RCH =           0.0000                   RCH =           0.0000     RCH-1                            

           TOTAL OUT =           0.2326             TOTAL OUT =       1.8615E-02

            IN - OUT =       4.0973E-08              IN - OUT =       5.5805E-09

 PERCENT DISCREPANCY =           0.00     PERCENT DISCREPANCY =           0.00




         TIME SUMMARY AT END OF TIME STEP    1 IN STRESS PERIOD   13
                    SECONDS     MINUTES      HOURS       DAYS        YEARS
                    -----------------------------------------------------------
   TIME STEP LENGTH  86400.      1440.0      24.000      1.0000     2.73785E-03
 STRESS PERIOD TIME  86400.      1440.0      24.000      1.0000     2.73785E-03
         TOTAL TIME 1.12320E+06  18720.      312.00      13.000     3.55921E-02


end timestep


start timestep kper="14" kstp="1" mode="normal"


 OUTPUT CONTROL FOR STRESS PERIOD 14 IS REPEATED USING SETTINGS FROM A PREVIOUS STRESS PERIOD.


 STRESS PERIOD 14 IS TRANSIENT

 UBDSV1 SAVING           STO-SS ON UNIT   1017 AT TIME STEP      1, STRESS PERIOD     14
 UBDSV1 SAVING     FLOW-JA-FACE ON UNIT   1017 AT TIME STEP      1, STRESS PERIOD     14
 UBDSV06 SAVING         DATA-SAT IN MODEL MODEL            PACKAGE NPF             CONNECTED TO MODEL MODEL            PACKAGE NPF              ON UNIT   1017 AT TIME STEP      1, STRESS PERIOD     14
 UBDSV06 SAVING              GHB IN MODEL MODEL            PACKAGE MODEL           CONNECTED TO MODEL MODEL            PACKAGE GHB-1            ON UNIT   1017 AT TIME STEP      1, STRESS PERIOD     14

 GHB PACKAGE (GHB-1) FLOW RATES   PERIOD     14   STEP        1
 -----------------------------------------------
   NUMBER   CELLID                    RATE      
 -----------------------------------------------
     1      (5,1,1)              -1.15968116E-03
 -----------------------------------------------




 HEAD WILL BE SAVED ON UNIT 1016 AT END OF TIME STEP    1, STRESS PERIOD   14


  VOLUME BUDGET FOR ENTIRE MODEL AT END OF TIME STEP    1, STRESS PERIOD  14
  ---------------------------------------------------------------------------------------------------

     CUMULATIVE VOLUME      L**3       RATES FOR THIS TIME STEP      L**3/T          PACKAGE NAME    
     ------------------                 ------------------------                     ----------------

           IN:                                      IN:
           ---                                      ---
              STO-SS =           0.0000                STO-SS =           0.0000     STORAGE                          
                 GHB =           0.0000                   GHB =           0.0000     GHB-1                            
                 RCH =           0.2515                   RCH =       1.8865E-02     RCH-1                            

            TOTAL IN =           0.2515              TOTAL IN =       1.8865E-02

          OUT:                                     OUT:
          ----                                     ----
              STO-SS =           0.2432                STO-SS =       1.7706E-02     STORAGE                          
                 GHB =       8.2421E-03                   GHB =       1.1597E-03     GHB-1                            
                 RCH =           0.0000                   RCH =           0.0000     RCH-1                            

           TOTAL OUT =           0.2515             TOTAL OUT =       1.8865E-02

            IN - OUT =       4.4969E-08              IN - OUT =       3.9963E-09

 PERCENT DISCREPANCY =           0.00     PERCENT DISCREPANCY =           0.00




         TIME SUMMARY AT END OF TIME STEP    1 IN STRESS PERIOD   14
                    SECONDS     MINUTES      HOURS       DAYS        YEARS
                    -----------------------------------------------------------
   TIME STEP LENGTH  86400.      1440.0      24.000      1.0000     2.73785E-03
 STRESS PERIOD TIME  86400.      1440.0      24.000      1.0000     2.73785E-03
         TOTAL TIME 1.20960E+06  20160.      336.00      14.000     3.83299E-02


end timestep


start timestep kper="15" kstp="1" mode="normal"


 OUTPUT CONTROL FOR STRESS PERIOD 15 IS REPEATED USING SETTINGS FROM A PREVIOUS STRESS PERIOD.


 STRESS PERIOD 15 IS TRANSIENT

 UBDSV1 SAVING           STO-SS ON UNIT   1017 AT TIME STEP      1, STRESS PERIOD     15
 UBDSV1 SAVING     FLOW-JA-FACE ON UNIT   1017 AT TIME STEP      1, STRESS PERIOD     15
 UBDSV06 SAVING         DATA-SAT IN MODEL MODEL            PACKAGE NPF             CONNECTED TO MODEL MODEL            PACKAGE NPF              ON UNIT   1017 AT TIME STEP      1, STRESS PERIOD     15
 UBDSV06 SAVING              GHB IN MODEL MODEL            PACKAGE MODEL           CONNECTED TO MODEL MODEL            PACKAGE GHB-1            ON UNIT   1017 AT TIME STEP      1, STRESS PERIOD     15

 GHB PACKAGE (GHB-1) FLOW RATES   PERIOD     15   STEP        1
 -----------------------------------------------
   NUMBER   CELLID                    RATE      
 -----------------------------------------------
     1      (5,1,1)              -1.28659995E-03
 -----------------------------------------------




 HEAD WILL BE SAVED ON UNIT 1016 AT END OF TIME STEP    1, STRESS PERIOD   15


  VOLUME BUDGET FOR ENTIRE MODEL AT END OF TIME STEP    1, STRESS PERIOD  15
  ---------------------------------------------------------------------------------------------------

     CUMULATIVE VOLUME      L**3       RATES FOR THIS TIME STEP      L**3/T          PACKAGE NAME    
     ------------------                 ------------------------                     ----------------

           IN:                                      IN:
           ---                                      ---
              STO-SS =           0.0000                STO-SS =           0.0000     STORAGE                          
                 GHB =           0.0000                   GHB =           0.0000     GHB-1                            
                 RCH =           0.2706                   RCH =       1.9155E-02     RCH-1                            

            TOTAL IN =           0.2706              TOTAL IN =       1.9155E-02

          OUT:                                     OUT:
          ----                                     ----
              STO-SS =           0.2611                STO-SS =       1.7869E-02     STORAGE                          
                 GHB =       9.5287E-03                   GHB =       1.2866E-03     GHB-1                            
                 RCH =           0.0000                   RCH =           0.0000     RCH-1                            

           TOTAL OUT =           0.2706             TOTAL OUT =       1.9155E-02

            IN - OUT =       4.9094E-08              IN - OUT =       4.1252E-09

 PERCENT DISCREPANCY =           0.00     PERCENT DISCREPANCY =           0.00




         TIME SUMMARY AT END OF TIME STEP    1 IN STRESS PERIOD   15
                    SECONDS     MINUTES      HOURS       DAYS        YEARS
                    -----------------------------------------------------------
   TIME STEP LENGTH  86400.      1440.0      24.000      1.0000     2.73785E-03
 STRESS PERIOD TIME  86400.      1440.0      24.000      1.0000     2.73785E-03
         TOTAL TIME 1.29600E+06  21600.      360.00      15.000     4.10678E-02


end timestep


start timestep kper="16" kstp="1" mode="normal"


 OUTPUT CONTROL FOR STRESS PERIOD 16 IS REPEATED USING SETTINGS FROM A PREVIOUS STRESS PERIOD.


 STRESS PERIOD 16 IS TRANSIENT

 UBDSV1 SAVING           STO-SS ON UNIT   1017 AT TIME STEP      1, STRESS PERIOD     16
 UBDSV1 SAVING     FLOW-JA-FACE ON UNIT   1017 AT TIME STEP      1, STRESS PERIOD     16
 UBDSV06 SAVING         DATA-SAT IN MODEL MODEL            PACKAGE NPF             CONNECTED TO MODEL MODEL            PACKAGE NPF              ON UNIT   1017 AT TIME STEP      1, STRESS PERIOD     16
 UBDSV06 SAVING              GHB IN MODEL MODEL            PACKAGE MODEL           CONNECTED TO MODEL MODEL            PACKAGE GHB-1            ON UNIT   1017 AT TIME STEP      1, STRESS PERIOD     16

 GHB PACKAGE (GHB-1) FLOW RATES   PERIOD     16   STEP        1
 -----------------------------------------------
   NUMBER   CELLID                    RATE      
 -----------------------------------------------
     1      (5,1,1)              -1.41955647E-03
 -----------------------------------------------




 HEAD WILL BE SAVED ON UNIT 1016 AT END OF TIME STEP    1, STRESS PERIOD   16


  VOLUME BUDGET FOR ENTIRE MODEL AT END OF TIME STEP    1, STRESS PERIOD  16
  ---------------------------------------------------------------------------------------------------

     CUMULATIVE VOLUME      L**3       RATES FOR THIS TIME STEP      L**3/T          PACKAGE NAME    
     ------------------                 ------------------------                     ----------------

           IN:                                      IN:
           ---                                      ---
              STO-SS =           0.0000                STO-SS =           0.0000     STORAGE                          
                 GHB =           0.0000                   GHB =           0.0000     GHB-1                            
                 RCH =           0.2901                   RCH =       1.9485E-02     RCH-1                            

            TOTAL IN =           0.2901              TOTAL IN =       1.9485E-02

          OUT:                                     OUT:
          ----                                     ----
              STO-SS =           0.2792                STO-SS =       1.8066E-02     STORAGE                          
                 GHB =       1.0948E-02                   GHB =       1.4196E-03     GHB-1                            
                 RCH =           0.0000                   RCH =           0.0000     RCH-1                            

           TOTAL OUT =           0.2901             TOTAL OUT =       1.9485E-02

            IN - OUT =       5.3772E-08              IN - OUT =       4.6781E-09

 PERCENT DISCREPANCY =           0.00     PERCENT DISCREPANCY =           0.00




         TIME SUMMARY AT END OF TIME STEP    1 IN STRESS PERIOD   16
                    SECONDS     MINUTES      HOURS       DAYS        YEARS
                    -----------------------------------------------------------
   TIME STEP LENGTH  86400.      1440.0      24.000      1.0000     2.73785E-03
 STRESS PERIOD TIME  86400.      1440.0      24.000      1.0000     2.73785E-03
         TOTAL TIME 1.38240E+06  23040.      384.00      16.000     4.38056E-02


end timestep


start timestep kper="17" kstp="1" mode="normal"


 OUTPUT CONTROL FOR STRESS PERIOD 17 IS REPEATED USING SETTINGS FROM A PREVIOUS STRESS PERIOD.


 STRESS PERIOD 17 IS TRANSIENT

 UBDSV1 SAVING           STO-SS ON UNIT   1017 AT TIME STEP      1, STRESS PERIOD     17
 UBDSV1 SAVING     FLOW-JA-FACE ON UNIT   1017 AT TIME STEP      1, STRESS PERIOD     17
 UBDSV06 SAVING         DATA-SAT IN MODEL MODEL            PACKAGE NPF             CONNECTED TO MODEL MODEL            PACKAGE NPF              ON UNIT   1017 AT TIME STEP      1, STRESS PERIOD     17
 UBDSV06 SAVING              GHB IN MODEL MODEL            PACKAGE MODEL           CONNECTED TO MODEL MODEL            PACKAGE GHB-1            ON UNIT   1017 AT TIME STEP      1, STRESS PERIOD     17

 GHB PACKAGE (GHB-1) FLOW RATES   PERIOD     17   STEP        1
 -----------------------------------------------
   NUMBER   CELLID                    RATE      
 -----------------------------------------------
     1      (5,1,1)              -1.55842155E-03
 -----------------------------------------------




 HEAD WILL BE SAVED ON UNIT 1016 AT END OF TIME STEP    1, STRESS PERIOD   17


  VOLUME BUDGET FOR ENTIRE MODEL AT END OF TIME STEP    1, STRESS PERIOD  17
  ---------------------------------------------------------------------------------------------------

     CUMULATIVE VOLUME      L**3       RATES FOR THIS TIME STEP      L**3/T          PACKAGE NAME    
     ------------------                 ------------------------                     ----------------

           IN:                                      IN:
           ---                                      ---
              STO-SS =           0.0000                STO-SS =           0.0000     STORAGE                          
                 GHB =           0.0000                   GHB =           0.0000     GHB-1                            
                 RCH =           0.3100                   RCH =       1.9858E-02     RCH-1                            

            TOTAL IN =           0.3100              TOTAL IN =       1.9858E-02

          OUT:                                     OUT:
          ----                                     ----
              STO-SS =           0.2975                STO-SS =       1.8300E-02     STORAGE                          
                 GHB =       1.2507E-02                   GHB =       1.5584E-03     GHB-1                            
                 RCH =           0.0000                   RCH =           0.0000     RCH-1                            

           TOTAL OUT =           0.3100             TOTAL OUT =       1.9858E-02

            IN - OUT =       5.8305E-08              IN - OUT =       4.5323E-09

 PERCENT DISCREPANCY =           0.00     PERCENT DISCREPANCY =           0.00




         TIME SUMMARY AT END OF TIME STEP    1 IN STRESS PERIOD   17
                    SECONDS     MINUTES      HOURS       DAYS        YEARS
                    -----------------------------------------------------------
   TIME STEP LENGTH  86400.      1440.0      24.000      1.0000     2.73785E-03
 STRESS PERIOD TIME  86400.      1440.0      24.000      1.0000     2.73785E-03
         TOTAL TIME 1.46880E+06  24480.      408.00      17.000     4.65435E-02


end timestep


start timestep kper="18" kstp="1" mode="normal"


 OUTPUT CONTROL FOR STRESS PERIOD 18 IS REPEATED USING SETTINGS FROM A PREVIOUS STRESS PERIOD.


 STRESS PERIOD 18 IS TRANSIENT

 UBDSV1 SAVING           STO-SS ON UNIT   1017 AT TIME STEP      1, STRESS PERIOD     18
 UBDSV1 SAVING     FLOW-JA-FACE ON UNIT   1017 AT TIME STEP      1, STRESS PERIOD     18
 UBDSV06 SAVING         DATA-SAT IN MODEL MODEL            PACKAGE NPF             CONNECTED TO MODEL MODEL            PACKAGE NPF              ON UNIT   1017 AT TIME STEP      1, STRESS PERIOD     18
 UBDSV06 SAVING              GHB IN MODEL MODEL            PACKAGE MODEL           CONNECTED TO MODEL MODEL            PACKAGE GHB-1            ON UNIT   1017 AT TIME STEP      1, STRESS PERIOD     18

 GHB PACKAGE (GHB-1) FLOW RATES   PERIOD     18   STEP        1
 -----------------------------------------------
   NUMBER   CELLID                    RATE      
 -----------------------------------------------
     1      (5,1,1)              -1.70875769E-03
 -----------------------------------------------




 HEAD WILL BE SAVED ON UNIT 1016 AT END OF TIME STEP    1, STRESS PERIOD   18


  VOLUME BUDGET FOR ENTIRE MODEL AT END OF TIME STEP    1, STRESS PERIOD  18
  ---------------------------------------------------------------------------------------------------

     CUMULATIVE VOLUME      L**3       RATES FOR THIS TIME STEP      L**3/T          PACKAGE NAME    
     ------------------                 ------------------------                     ----------------

           IN:                                      IN:
           ---                                      ---
              STO-SS =           0.0000                STO-SS =           0.0000     STORAGE                          
                 GHB =           0.0000                   GHB =           0.0000     GHB-1                            
                 RCH =           0.3302                   RCH =       2.0278E-02     RCH-1                            

            TOTAL IN =           0.3302              TOTAL IN =       2.0278E-02

          OUT:                                     OUT:
          ----                                     ----
              STO-SS =           0.3160                STO-SS =       1.8569E-02     STORAGE                          
                 GHB =       1.4215E-02                   GHB =       1.7088E-03     GHB-1                            
                 RCH =           0.0000                   RCH =           0.0000     RCH-1                            

           TOTAL OUT =           0.3302             TOTAL OUT =       2.0278E-02

            IN - OUT =       6.3645E-08              IN - OUT =       5.3407E-09

 PERCENT DISCREPANCY =           0.00     PERCENT DISCREPANCY =           0.00




         TIME SUMMARY AT END OF TIME STEP    1 IN STRESS PERIOD   18
                    SECONDS     MINUTES      HOURS       DAYS        YEARS
                    -----------------------------------------------------------
   TIME STEP LENGTH  86400.      1440.0      24.000      1.0000     2.73785E-03
 STRESS PERIOD TIME  86400.      1440.0      24.000      1.0000     2.73785E-03
         TOTAL TIME 1.55520E+06  25920.      432.00      18.000     4.92813E-02


end timestep


start timestep kper="19" kstp="1" mode="normal"


 OUTPUT CONTROL FOR STRESS PERIOD 19 IS REPEATED USING SETTINGS FROM A PREVIOUS STRESS PERIOD.


 STRESS PERIOD 19 IS TRANSIENT

 UBDSV1 SAVING           STO-SS ON UNIT   1017 AT TIME STEP      1, STRESS PERIOD     19
 UBDSV1 SAVING     FLOW-JA-FACE ON UNIT   1017 AT TIME STEP      1, STRESS PERIOD     19
 UBDSV06 SAVING         DATA-SAT IN MODEL MODEL            PACKAGE NPF             CONNECTED TO MODEL MODEL            PACKAGE NPF              ON UNIT   1017 AT TIME STEP      1, STRESS PERIOD     19
 UBDSV06 SAVING              GHB IN MODEL MODEL            PACKAGE MODEL           CONNECTED TO MODEL MODEL            PACKAGE GHB-1            ON UNIT   1017 AT TIME STEP      1, STRESS PERIOD     19

 GHB PACKAGE (GHB-1) FLOW RATES   PERIOD     19   STEP        1
 -----------------------------------------------
   NUMBER   CELLID                    RATE      
 -----------------------------------------------
     1      (5,1,1)              -1.89424852E-03
 -----------------------------------------------




 HEAD WILL BE SAVED ON UNIT 1016 AT END OF TIME STEP    1, STRESS PERIOD   19


  VOLUME BUDGET FOR ENTIRE MODEL AT END OF TIME STEP    1, STRESS PERIOD  19
  ---------------------------------------------------------------------------------------------------

     CUMULATIVE VOLUME      L**3       RATES FOR THIS TIME STEP      L**3/T          PACKAGE NAME    
     ------------------                 ------------------------                     ----------------

           IN:                                      IN:
           ---                                      ---
              STO-SS =           0.0000                STO-SS =           0.0000     STORAGE                          
                 GHB =           0.0000                   GHB =           0.0000     GHB-1                            
                 RCH =           0.3510                   RCH =       2.0784E-02     RCH-1                            

            TOTAL IN =           0.3510              TOTAL IN =       2.0784E-02

          OUT:                                     OUT:
          ----                                     ----
              STO-SS =           0.3349                STO-SS =       1.8889E-02     STORAGE                          
                 GHB =       1.6110E-02                   GHB =       1.8942E-03     GHB-1                            
                 RCH =           0.0000                   RCH =           0.0000     RCH-1                            

           TOTAL OUT =           0.3510             TOTAL OUT =       2.0784E-02

            IN - OUT =       6.6047E-08              IN - OUT =       2.4023E-09

 PERCENT DISCREPANCY =           0.00     PERCENT DISCREPANCY =           0.00




         TIME SUMMARY AT END OF TIME STEP    1 IN STRESS PERIOD   19
                    SECONDS     MINUTES      HOURS       DAYS        YEARS
                    -----------------------------------------------------------
   TIME STEP LENGTH  86400.      1440.0      24.000      1.0000     2.73785E-03
 STRESS PERIOD TIME  86400.      1440.0      24.000      1.0000     2.73785E-03
         TOTAL TIME 1.64160E+06  27360.      456.00      19.000     5.20192E-02


end timestep


start timestep kper="20" kstp="1" mode="normal"


 OUTPUT CONTROL FOR STRESS PERIOD 20 IS REPEATED USING SETTINGS FROM A PREVIOUS STRESS PERIOD.


 STRESS PERIOD 20 IS TRANSIENT

 UBDSV1 SAVING           STO-SS ON UNIT   1017 AT TIME STEP      1, STRESS PERIOD     20
 UBDSV1 SAVING     FLOW-JA-FACE ON UNIT   1017 AT TIME STEP      1, STRESS PERIOD     20
 UBDSV06 SAVING         DATA-SAT IN MODEL MODEL            PACKAGE NPF             CONNECTED TO MODEL MODEL            PACKAGE NPF              ON UNIT   1017 AT TIME STEP      1, STRESS PERIOD     20
 UBDSV06 SAVING              GHB IN MODEL MODEL            PACKAGE MODEL           CONNECTED TO MODEL MODEL            PACKAGE GHB-1            ON UNIT   1017 AT TIME STEP      1, STRESS PERIOD     20

 GHB PACKAGE (GHB-1) FLOW RATES   PERIOD     20   STEP        1
 -----------------------------------------------
   NUMBER   CELLID                    RATE      
 -----------------------------------------------
     1      (5,1,1)              -2.09965931E-03
 -----------------------------------------------




 HEAD WILL BE SAVED ON UNIT 1016 AT END OF TIME STEP    1, STRESS PERIOD   20


  VOLUME BUDGET FOR ENTIRE MODEL AT END OF TIME STEP    1, STRESS PERIOD  20
  ---------------------------------------------------------------------------------------------------

     CUMULATIVE VOLUME      L**3       RATES FOR THIS TIME STEP      L**3/T          PACKAGE NAME    
     ------------------                 ------------------------                     ----------------

           IN:                                      IN:
           ---                                      ---
              STO-SS =           0.0000                STO-SS =           0.0000     STORAGE                          
                 GHB =           0.0000                   GHB =           0.0000     GHB-1                            
                 RCH =           0.3724                   RCH =       2.1394E-02     RCH-1                            

            TOTAL IN =           0.3724              TOTAL IN =       2.1394E-02

          OUT:                                     OUT:
          ----                                     ----
              STO-SS =           0.3542                STO-SS =       1.9294E-02     STORAGE                          
                 GHB =       1.8209E-02                   GHB =       2.0997E-03     GHB-1                            
                 RCH =           0.0000                   RCH =           0.0000     RCH-1                            

           TOTAL OUT =           0.3724             TOTAL OUT =       2.1394E-02

            IN - OUT =       6.9933E-08              IN - OUT =       3.8857E-09

 PERCENT DISCREPANCY =           0.00     PERCENT DISCREPANCY =           0.00




         TIME SUMMARY AT END OF TIME STEP    1 IN STRESS PERIOD   20
                    SECONDS     MINUTES      HOURS       DAYS        YEARS
                    -----------------------------------------------------------
   TIME STEP LENGTH  86400.      1440.0      24.000      1.0000     2.73785E-03
 STRESS PERIOD TIME  86400.      1440.0      24.000      1.0000     2.73785E-03
         TOTAL TIME 1.72800E+06  28800.      480.00      20.000     5.47570E-02


end timestep


start timestep kper="21" kstp="1" mode="normal"


 OUTPUT CONTROL FOR STRESS PERIOD 21 IS REPEATED USING SETTINGS FROM A PREVIOUS STRESS PERIOD.


 STRESS PERIOD 21 IS TRANSIENT

 UBDSV1 SAVING           STO-SS ON UNIT   1017 AT TIME STEP      1, STRESS PERIOD     21
 UBDSV1 SAVING     FLOW-JA-FACE ON UNIT   1017 AT TIME STEP      1, STRESS PERIOD     21
 UBDSV06 SAVING         DATA-SAT IN MODEL MODEL            PACKAGE NPF             CONNECTED TO MODEL MODEL            PACKAGE NPF              ON UNIT   1017 AT TIME STEP      1, STRESS PERIOD     21
 UBDSV06 SAVING              GHB IN MODEL MODEL            PACKAGE MODEL           CONNECTED TO MODEL MODEL            PACKAGE GHB-1            ON UNIT   1017 AT TIME STEP      1, STRESS PERIOD     21

 GHB PACKAGE (GHB-1) FLOW RATES   PERIOD     21   STEP        1
 -----------------------------------------------
   NUMBER   CELLID                    RATE      
 -----------------------------------------------
     1      (5,1,1)              -2.31785157E-03
 -----------------------------------------------




 HEAD WILL BE SAVED ON UNIT 1016 AT END OF TIME STEP    1, STRESS PERIOD   21


  VOLUME BUDGET FOR ENTIRE MODEL AT END OF TIME STEP    1, STRESS PERIOD  21
  ---------------------------------------------------------------------------------------------------

     CUMULATIVE VOLUME      L**3       RATES FOR THIS TIME STEP      L**3/T          PACKAGE NAME    
     ------------------                 ------------------------                     ----------------

           IN:                                      IN:
           ---                                      ---
              STO-SS =           0.0000                STO-SS =           0.0000     STORAGE                          
                 GHB =           0.0000                   GHB =           0.0000     GHB-1                            
                 RCH =           0.3945                   RCH =       2.2115E-02     RCH-1                            

            TOTAL IN =           0.3945              TOTAL IN =       2.2115E-02

          OUT:                                     OUT:
          ----                                     ----
              STO-SS =           0.3740                STO-SS =       1.9797E-02     STORAGE                          
                 GHB =       2.0527E-02                   GHB =       2.3179E-03     GHB-1                            
                 RCH =           0.0000                   RCH =           0.0000     RCH-1                            

           TOTAL OUT =           0.3945             TOTAL OUT =       2.2115E-02

            IN - OUT =       7.2804E-08              IN - OUT =       2.8704E-09

 PERCENT DISCREPANCY =           0.00     PERCENT DISCREPANCY =           0.00




         TIME SUMMARY AT END OF TIME STEP    1 IN STRESS PERIOD   21
                    SECONDS     MINUTES      HOURS       DAYS        YEARS
                    -----------------------------------------------------------
   TIME STEP LENGTH  86400.      1440.0      24.000      1.0000     2.73785E-03
 STRESS PERIOD TIME  86400.      1440.0      24.000      1.0000     2.73785E-03
         TOTAL TIME 1.81440E+06  30240.      504.00      21.000     5.74949E-02


end timestep


start timestep kper="22" kstp="1" mode="normal"


 OUTPUT CONTROL FOR STRESS PERIOD 22 IS REPEATED USING SETTINGS FROM A PREVIOUS STRESS PERIOD.


 STRESS PERIOD 22 IS TRANSIENT

 UBDSV1 SAVING           STO-SS ON UNIT   1017 AT TIME STEP      1, STRESS PERIOD     22
 UBDSV1 SAVING     FLOW-JA-FACE ON UNIT   1017 AT TIME STEP      1, STRESS PERIOD     22
 UBDSV06 SAVING         DATA-SAT IN MODEL MODEL            PACKAGE NPF             CONNECTED TO MODEL MODEL            PACKAGE NPF              ON UNIT   1017 AT TIME STEP      1, STRESS PERIOD     22
 UBDSV06 SAVING              GHB IN MODEL MODEL            PACKAGE MODEL           CONNECTED TO MODEL MODEL            PACKAGE GHB-1            ON UNIT   1017 AT TIME STEP      1, STRESS PERIOD     22

 GHB PACKAGE (GHB-1) FLOW RATES   PERIOD     22   STEP        1
 -----------------------------------------------
   NUMBER   CELLID                    RATE      
 -----------------------------------------------
     1      (5,1,1)              -2.54816583E-03
 -----------------------------------------------




 HEAD WILL BE SAVED ON UNIT 1016 AT END OF TIME STEP    1, STRESS PERIOD   22


  VOLUME BUDGET FOR ENTIRE MODEL AT END OF TIME STEP    1, STRESS PERIOD  22
  ---------------------------------------------------------------------------------------------------

     CUMULATIVE VOLUME      L**3       RATES FOR THIS TIME STEP      L**3/T          PACKAGE NAME    
     ------------------                 ------------------------                     ----------------

           IN:                                      IN:
           ---                                      ---
              STO-SS =           0.0000                STO-SS =           0.0000     STORAGE                          
                 GHB =           0.0000                   GHB =           0.0000     GHB-1                            
                 RCH =           0.4175                   RCH =       2.2948E-02     RCH-1                            

            TOTAL IN =           0.4175              TOTAL IN =       2.2948E-02

          OUT:                                     OUT:
          ----                                     ----
              STO-SS =           0.3944                STO-SS =       2.0400E-02     STORAGE                          
                 GHB =       2.3075E-02                   GHB =       2.5482E-03     GHB-1                            
                 RCH =           0.0000                   RCH =           0.0000     RCH-1                            

           TOTAL OUT =           0.4175             TOTAL OUT =       2.2948E-02

            IN - OUT =       7.5489E-08              IN - OUT =       2.6852E-09

 PERCENT DISCREPANCY =           0.00     PERCENT DISCREPANCY =           0.00




         TIME SUMMARY AT END OF TIME STEP    1 IN STRESS PERIOD   22
                    SECONDS     MINUTES      HOURS       DAYS        YEARS
                    -----------------------------------------------------------
   TIME STEP LENGTH  86400.      1440.0      24.000      1.0000     2.73785E-03
 STRESS PERIOD TIME  86400.      1440.0      24.000      1.0000     2.73785E-03
         TOTAL TIME 1.90080E+06  31680.      528.00      22.000     6.02327E-02


end timestep


start timestep kper="23" kstp="1" mode="normal"


 OUTPUT CONTROL FOR STRESS PERIOD 23 IS REPEATED USING SETTINGS FROM A PREVIOUS STRESS PERIOD.


[...]
 STRESS PERIOD TIME  86400.      1440.0      24.000      1.0000     2.73785E-03
         TOTAL TIME 8.98560E+06 1.49760E+05  2496.0      104.00     0.28474    


end timestep


start timestep kper="105" kstp="1" mode="normal"


 OUTPUT CONTROL FOR STRESS PERIOD 105 IS REPEATED USING SETTINGS FROM A PREVIOUS STRESS PERIOD.


 STRESS PERIOD 105 IS TRANSIENT

 UBDSV1 SAVING           STO-SS ON UNIT   1017 AT TIME STEP      1, STRESS PERIOD    105
 UBDSV1 SAVING     FLOW-JA-FACE ON UNIT   1017 AT TIME STEP      1, STRESS PERIOD    105
 UBDSV06 SAVING         DATA-SAT IN MODEL MODEL            PACKAGE NPF             CONNECTED TO MODEL MODEL            PACKAGE NPF              ON UNIT   1017 AT TIME STEP      1, STRESS PERIOD    105
 UBDSV06 SAVING              GHB IN MODEL MODEL            PACKAGE MODEL           CONNECTED TO MODEL MODEL            PACKAGE GHB-1            ON UNIT   1017 AT TIME STEP      1, STRESS PERIOD    105

 GHB PACKAGE (GHB-1) FLOW RATES   PERIOD    105   STEP        1
 -----------------------------------------------
   NUMBER   CELLID                    RATE      
 -----------------------------------------------
     1      (5,1,1)              -0.21633788    
 -----------------------------------------------




 HEAD WILL BE SAVED ON UNIT 1016 AT END OF TIME STEP    1, STRESS PERIOD  105


  VOLUME BUDGET FOR ENTIRE MODEL AT END OF TIME STEP    1, STRESS PERIOD 105
  ---------------------------------------------------------------------------------------------------

     CUMULATIVE VOLUME      L**3       RATES FOR THIS TIME STEP      L**3/T          PACKAGE NAME    
     ------------------                 ------------------------                     ----------------

           IN:                                      IN:
           ---                                      ---
              STO-SS =           0.0000                STO-SS =           0.0000     STORAGE                          
                 GHB =           0.0000                   GHB =           0.0000     GHB-1                            
                 RCH =          15.2496                   RCH =           0.2273     RCH-1                            

            TOTAL IN =          15.2496              TOTAL IN =           0.2273

          OUT:                                     OUT:
          ----                                     ----
              STO-SS =           6.2548                STO-SS =       1.0978E-02     STORAGE                          
                 GHB =           8.9948                   GHB =           0.2163     GHB-1                            
                 RCH =           0.0000                   RCH =           0.0000     RCH-1                            

           TOTAL OUT =          15.2496             TOTAL OUT =           0.2273

            IN - OUT =       6.9881E-08              IN - OUT =       3.0170E-14

 PERCENT DISCREPANCY =           0.00     PERCENT DISCREPANCY =           0.00




         TIME SUMMARY AT END OF TIME STEP    1 IN STRESS PERIOD  105
                    SECONDS     MINUTES      HOURS       DAYS        YEARS
                    -----------------------------------------------------------
   TIME STEP LENGTH  86400.      1440.0      24.000      1.0000     2.73785E-03
 STRESS PERIOD TIME  86400.      1440.0      24.000      1.0000     2.73785E-03
         TOTAL TIME 9.07200E+06 1.51200E+05  2520.0      105.00     0.28747    


end timestep


start timestep kper="106" kstp="1" mode="normal"


 OUTPUT CONTROL FOR STRESS PERIOD 106 IS REPEATED USING SETTINGS FROM A PREVIOUS STRESS PERIOD.


 STRESS PERIOD 106 IS TRANSIENT

 UBDSV1 SAVING           STO-SS ON UNIT   1017 AT TIME STEP      1, STRESS PERIOD    106
 UBDSV1 SAVING     FLOW-JA-FACE ON UNIT   1017 AT TIME STEP      1, STRESS PERIOD    106
 UBDSV06 SAVING         DATA-SAT IN MODEL MODEL            PACKAGE NPF             CONNECTED TO MODEL MODEL            PACKAGE NPF              ON UNIT   1017 AT TIME STEP      1, STRESS PERIOD    106
 UBDSV06 SAVING              GHB IN MODEL MODEL            PACKAGE MODEL           CONNECTED TO MODEL MODEL            PACKAGE GHB-1            ON UNIT   1017 AT TIME STEP      1, STRESS PERIOD    106

 GHB PACKAGE (GHB-1) FLOW RATES   PERIOD    106   STEP        1
 -----------------------------------------------
   NUMBER   CELLID                    RATE      
 -----------------------------------------------
     1      (5,1,1)              -0.21732243    
 -----------------------------------------------




 HEAD WILL BE SAVED ON UNIT 1016 AT END OF TIME STEP    1, STRESS PERIOD  106


  VOLUME BUDGET FOR ENTIRE MODEL AT END OF TIME STEP    1, STRESS PERIOD 106
  ---------------------------------------------------------------------------------------------------

     CUMULATIVE VOLUME      L**3       RATES FOR THIS TIME STEP      L**3/T          PACKAGE NAME    
     ------------------                 ------------------------                     ----------------

           IN:                                      IN:
           ---                                      ---
              STO-SS =           0.0000                STO-SS =           0.0000     STORAGE                          
                 GHB =           0.0000                   GHB =           0.0000     GHB-1                            
                 RCH =          15.4777                   RCH =           0.2281     RCH-1                            

            TOTAL IN =          15.4777              TOTAL IN =           0.2281

          OUT:                                     OUT:
          ----                                     ----
              STO-SS =           6.2655                STO-SS =       1.0758E-02     STORAGE                          
                 GHB =           9.2122                   GHB =           0.2173     GHB-1                            
                 RCH =           0.0000                   RCH =           0.0000     RCH-1                            

           TOTAL OUT =          15.4777             TOTAL OUT =           0.2281

            IN - OUT =       6.9882E-08              IN - OUT =       2.4925E-14

 PERCENT DISCREPANCY =           0.00     PERCENT DISCREPANCY =           0.00




         TIME SUMMARY AT END OF TIME STEP    1 IN STRESS PERIOD  106
                    SECONDS     MINUTES      HOURS       DAYS        YEARS
                    -----------------------------------------------------------
   TIME STEP LENGTH  86400.      1440.0      24.000      1.0000     2.73785E-03
 STRESS PERIOD TIME  86400.      1440.0      24.000      1.0000     2.73785E-03
         TOTAL TIME 9.15840E+06 1.52640E+05  2544.0      106.00     0.29021    


end timestep


start timestep kper="107" kstp="1" mode="normal"


 OUTPUT CONTROL FOR STRESS PERIOD 107 IS REPEATED USING SETTINGS FROM A PREVIOUS STRESS PERIOD.


 STRESS PERIOD 107 IS TRANSIENT

 UBDSV1 SAVING           STO-SS ON UNIT   1017 AT TIME STEP      1, STRESS PERIOD    107
 UBDSV1 SAVING     FLOW-JA-FACE ON UNIT   1017 AT TIME STEP      1, STRESS PERIOD    107
 UBDSV06 SAVING         DATA-SAT IN MODEL MODEL            PACKAGE NPF             CONNECTED TO MODEL MODEL            PACKAGE NPF              ON UNIT   1017 AT TIME STEP      1, STRESS PERIOD    107
 UBDSV06 SAVING              GHB IN MODEL MODEL            PACKAGE MODEL           CONNECTED TO MODEL MODEL            PACKAGE GHB-1            ON UNIT   1017 AT TIME STEP      1, STRESS PERIOD    107

 GHB PACKAGE (GHB-1) FLOW RATES   PERIOD    107   STEP        1
 -----------------------------------------------
   NUMBER   CELLID                    RATE      
 -----------------------------------------------
     1      (5,1,1)              -0.21832193    
 -----------------------------------------------




 HEAD WILL BE SAVED ON UNIT 1016 AT END OF TIME STEP    1, STRESS PERIOD  107


  VOLUME BUDGET FOR ENTIRE MODEL AT END OF TIME STEP    1, STRESS PERIOD 107
  ---------------------------------------------------------------------------------------------------

     CUMULATIVE VOLUME      L**3       RATES FOR THIS TIME STEP      L**3/T          PACKAGE NAME    
     ------------------                 ------------------------                     ----------------

           IN:                                      IN:
           ---                                      ---
              STO-SS =           0.0000                STO-SS =           0.0000     STORAGE                          
                 GHB =           0.0000                   GHB =           0.0000     GHB-1                            
                 RCH =          15.7061                   RCH =           0.2284     RCH-1                            

            TOTAL IN =          15.7061              TOTAL IN =           0.2284

          OUT:                                     OUT:
          ----                                     ----
              STO-SS =           6.2756                STO-SS =       1.0087E-02     STORAGE                          
                 GHB =           9.4305                   GHB =           0.2183     GHB-1                            
                 RCH =           0.0000                   RCH =           0.0000     RCH-1                            

           TOTAL OUT =          15.7061             TOTAL OUT =           0.2284

            IN - OUT =       6.9882E-08              IN - OUT =       4.8378E-14

 PERCENT DISCREPANCY =           0.00     PERCENT DISCREPANCY =           0.00




         TIME SUMMARY AT END OF TIME STEP    1 IN STRESS PERIOD  107
                    SECONDS     MINUTES      HOURS       DAYS        YEARS
                    -----------------------------------------------------------
   TIME STEP LENGTH  86400.      1440.0      24.000      1.0000     2.73785E-03
 STRESS PERIOD TIME  86400.      1440.0      24.000      1.0000     2.73785E-03
         TOTAL TIME 9.24480E+06 1.54080E+05  2568.0      107.00     0.29295    


end timestep


start timestep kper="108" kstp="1" mode="normal"


 OUTPUT CONTROL FOR STRESS PERIOD 108 IS REPEATED USING SETTINGS FROM A PREVIOUS STRESS PERIOD.


 STRESS PERIOD 108 IS TRANSIENT

 UBDSV1 SAVING           STO-SS ON UNIT   1017 AT TIME STEP      1, STRESS PERIOD    108
 UBDSV1 SAVING     FLOW-JA-FACE ON UNIT   1017 AT TIME STEP      1, STRESS PERIOD    108
 UBDSV06 SAVING         DATA-SAT IN MODEL MODEL            PACKAGE NPF             CONNECTED TO MODEL MODEL            PACKAGE NPF              ON UNIT   1017 AT TIME STEP      1, STRESS PERIOD    108
 UBDSV06 SAVING              GHB IN MODEL MODEL            PACKAGE MODEL           CONNECTED TO MODEL MODEL            PACKAGE GHB-1            ON UNIT   1017 AT TIME STEP      1, STRESS PERIOD    108

 GHB PACKAGE (GHB-1) FLOW RATES   PERIOD    108   STEP        1
 -----------------------------------------------
   NUMBER   CELLID                    RATE      
 -----------------------------------------------
     1      (5,1,1)              -0.22175653    
 -----------------------------------------------




 HEAD WILL BE SAVED ON UNIT 1016 AT END OF TIME STEP    1, STRESS PERIOD  108


  VOLUME BUDGET FOR ENTIRE MODEL AT END OF TIME STEP    1, STRESS PERIOD 108
  ---------------------------------------------------------------------------------------------------

     CUMULATIVE VOLUME      L**3       RATES FOR THIS TIME STEP      L**3/T          PACKAGE NAME    
     ------------------                 ------------------------                     ----------------

           IN:                                      IN:
           ---                                      ---
              STO-SS =           0.0000                STO-SS =           0.0000     STORAGE                          
                 GHB =           0.0000                   GHB =           0.0000     GHB-1                            
                 RCH =          15.9661                   RCH =           0.2600     RCH-1                            

            TOTAL IN =          15.9661              TOTAL IN =           0.2600

          OUT:                                     OUT:
          ----                                     ----
              STO-SS =           6.3138                STO-SS =       3.8229E-02     STORAGE                          
                 GHB =           9.6522                   GHB =           0.2218     GHB-1                            
                 RCH =           0.0000                   RCH =           0.0000     RCH-1                            

           TOTAL OUT =          15.9661             TOTAL OUT =           0.2600

            IN - OUT =       7.0236E-08              IN - OUT =       3.5415E-10

 PERCENT DISCREPANCY =           0.00     PERCENT DISCREPANCY =           0.00




         TIME SUMMARY AT END OF TIME STEP    1 IN STRESS PERIOD  108
                    SECONDS     MINUTES      HOURS       DAYS        YEARS
                    -----------------------------------------------------------
   TIME STEP LENGTH  86400.      1440.0      24.000      1.0000     2.73785E-03
 STRESS PERIOD TIME  86400.      1440.0      24.000      1.0000     2.73785E-03
         TOTAL TIME 9.33120E+06 1.55520E+05  2592.0      108.00     0.29569    


end timestep


start timestep kper="109" kstp="1" mode="normal"


 OUTPUT CONTROL FOR STRESS PERIOD 109 IS REPEATED USING SETTINGS FROM A PREVIOUS STRESS PERIOD.


 STRESS PERIOD 109 IS TRANSIENT

 UBDSV1 SAVING           STO-SS ON UNIT   1017 AT TIME STEP      1, STRESS PERIOD    109
 UBDSV1 SAVING     FLOW-JA-FACE ON UNIT   1017 AT TIME STEP      1, STRESS PERIOD    109
 UBDSV06 SAVING         DATA-SAT IN MODEL MODEL            PACKAGE NPF             CONNECTED TO MODEL MODEL            PACKAGE NPF              ON UNIT   1017 AT TIME STEP      1, STRESS PERIOD    109
 UBDSV06 SAVING              GHB IN MODEL MODEL            PACKAGE MODEL           CONNECTED TO MODEL MODEL            PACKAGE GHB-1            ON UNIT   1017 AT TIME STEP      1, STRESS PERIOD    109

 GHB PACKAGE (GHB-1) FLOW RATES   PERIOD    109   STEP        1
 -----------------------------------------------
   NUMBER   CELLID                    RATE      
 -----------------------------------------------
     1      (5,1,1)              -0.22520875    
 -----------------------------------------------




 HEAD WILL BE SAVED ON UNIT 1016 AT END OF TIME STEP    1, STRESS PERIOD  109


  VOLUME BUDGET FOR ENTIRE MODEL AT END OF TIME STEP    1, STRESS PERIOD 109
  ---------------------------------------------------------------------------------------------------

     CUMULATIVE VOLUME      L**3       RATES FOR THIS TIME STEP      L**3/T          PACKAGE NAME    
     ------------------                 ------------------------                     ----------------

           IN:                                      IN:
           ---                                      ---
              STO-SS =           0.0000                STO-SS =           0.0000     STORAGE                          
                 GHB =           0.0000                   GHB =           0.0000     GHB-1                            
                 RCH =          16.2260                   RCH =           0.2600     RCH-1                            

            TOTAL IN =          16.2260              TOTAL IN =           0.2600

          OUT:                                     OUT:
          ----                                     ----
              STO-SS =           6.3486                STO-SS =       3.4769E-02     STORAGE                          
                 GHB =           9.8775                   GHB =           0.2252     GHB-1                            
                 RCH =           0.0000                   RCH =           0.0000     RCH-1                            

           TOTAL OUT =          16.2260             TOTAL OUT =           0.2600

            IN - OUT =       7.0236E-08              IN - OUT =       1.5266E-14

 PERCENT DISCREPANCY =           0.00     PERCENT DISCREPANCY =           0.00




         TIME SUMMARY AT END OF TIME STEP    1 IN STRESS PERIOD  109
                    SECONDS     MINUTES      HOURS       DAYS        YEARS
                    -----------------------------------------------------------
   TIME STEP LENGTH  86400.      1440.0      24.000      1.0000     2.73785E-03
 STRESS PERIOD TIME  86400.      1440.0      24.000      1.0000     2.73785E-03
         TOTAL TIME 9.41760E+06 1.56960E+05  2616.0      109.00     0.29843    


end timestep


start timestep kper="110" kstp="1" mode="normal"


 OUTPUT CONTROL FOR STRESS PERIOD 110 IS REPEATED USING SETTINGS FROM A PREVIOUS STRESS PERIOD.


 STRESS PERIOD 110 IS TRANSIENT

 UBDSV1 SAVING           STO-SS ON UNIT   1017 AT TIME STEP      1, STRESS PERIOD    110
 UBDSV1 SAVING     FLOW-JA-FACE ON UNIT   1017 AT TIME STEP      1, STRESS PERIOD    110
 UBDSV06 SAVING         DATA-SAT IN MODEL MODEL            PACKAGE NPF             CONNECTED TO MODEL MODEL            PACKAGE NPF              ON UNIT   1017 AT TIME STEP      1, STRESS PERIOD    110
 UBDSV06 SAVING              GHB IN MODEL MODEL            PACKAGE MODEL           CONNECTED TO MODEL MODEL            PACKAGE GHB-1            ON UNIT   1017 AT TIME STEP      1, STRESS PERIOD    110

 GHB PACKAGE (GHB-1) FLOW RATES   PERIOD    110   STEP        1
 -----------------------------------------------
   NUMBER   CELLID                    RATE      
 -----------------------------------------------
     1      (5,1,1)              -0.22838164    
 -----------------------------------------------




 HEAD WILL BE SAVED ON UNIT 1016 AT END OF TIME STEP    1, STRESS PERIOD  110


  VOLUME BUDGET FOR ENTIRE MODEL AT END OF TIME STEP    1, STRESS PERIOD 110
  ---------------------------------------------------------------------------------------------------

     CUMULATIVE VOLUME      L**3       RATES FOR THIS TIME STEP      L**3/T          PACKAGE NAME    
     ------------------                 ------------------------                     ----------------

           IN:                                      IN:
           ---                                      ---
              STO-SS =           0.0000                STO-SS =           0.0000     STORAGE                          
                 GHB =           0.0000                   GHB =           0.0000     GHB-1                            
                 RCH =          16.4860                   RCH =           0.2600     RCH-1                            

            TOTAL IN =          16.4860              TOTAL IN =           0.2600

          OUT:                                     OUT:
          ----                                     ----
              STO-SS =           6.3802                STO-SS =       3.1614E-02     STORAGE                          
                 GHB =          10.1058                   GHB =           0.2284     GHB-1                            
                 RCH =           0.0000                   RCH =           0.0000     RCH-1                            

           TOTAL OUT =          16.4860             TOTAL OUT =           0.2600

            IN - OUT =       7.0236E-08              IN - OUT =       1.7431E-14

 PERCENT DISCREPANCY =           0.00     PERCENT DISCREPANCY =           0.00




         TIME SUMMARY AT END OF TIME STEP    1 IN STRESS PERIOD  110
                    SECONDS     MINUTES      HOURS       DAYS        YEARS
                    -----------------------------------------------------------
   TIME STEP LENGTH  86400.      1440.0      24.000      1.0000     2.73785E-03
 STRESS PERIOD TIME  86400.      1440.0      24.000      1.0000     2.73785E-03
         TOTAL TIME 9.50400E+06 1.58400E+05  2640.0      110.00     0.30116    


end timestep

