                                   MODFLOW 6
                U.S. GEOLOGICAL SURVEY MODULAR HYDROLOGIC MODEL
                          GROUNDWATER FLOW MODEL (GWF)
                            VERSION 6.6.1 02/10/2025

   MODFLOW 6 compiled Feb 10 2025 17:37:25 with Intel(R) Fortran Intel(R) 64
   Compiler Classic for applications running on Intel(R) 64, Version 2021.7.0
                             Build 20220726_000000

This software has been approved for release by the U.S. Geological 
Survey (USGS). Although the software has been subjected to rigorous 
review, the USGS reserves the right to update the software as needed 
pursuant to further analysis and review. No warranty, expressed or 
implied, is made by the USGS or the U.S. Government as to the 
functionality of the software and related material nor shall the 
fact of release constitute any such warranty. Furthermore, the 
software is released on condition that neither the USGS nor the U.S. 
Government shall be held liable for any damages resulting from its 
authorized or unauthorized use. Also refer to the USGS Water 
Resources Software User Rights Notice for complete use, copyright, 
and distribution information.


As a work of the United States Government, this USGS product is 
in the public domain within the United States. You can copy, 
modify, distribute, and perform the work, even for commercial 
purposes, all without asking permission. Additionally, USGS 
waives copyright and related rights in the work worldwide 
through CC0 1.0 Universal Public Domain Dedication 
(https://creativecommons.org/publicdomain/zero/1.0/).

The following GNU Lesser General Public License (LGPL) libraries
are used in this USGS product:

    SPARSKIT version 2.0
      ilut, luson, and qsplit 
      (https://www-users.cse.umn.edu/~saad/software/SPARSKIT/)

    RCM - Reverse Cuthill McKee Ordering
      (https://people.math.sc.edu/Burkardt/f_src/rcm/rcm.html)

    BLAS - Basic Linear Algebra Subprograms Level 1
      (https://people.math.sc.edu/Burkardt/f_src/blas1_d/blas1_d.html)

    SPARSEKIT - Sparse Matrix Utility Package
      amux, dperm, dvperm, rperm, and cperm
      (https://people.sc.fsu.edu/~jburkardt/f77_src/sparsekit/sparsekit.html)

The following BSD-3 License libraries are used in this USGS product:

    Modern Fortran DAG Library
      Copyright (c) 2018, Jacob Williams
      All rights reserved.
      (https://github.com/jacobwilliams/daglib)

MODFLOW 6 compiler options: /Isrc\libmf6core.a.p /Isrc /I..\src
/Isrc\libmf6_external.a.p /MTd /nologo /warn:general /warn:truncated_source
/stand:f08 /Zi /traceback /O2 /fpe:0 /heap-arrays:0 /traceback /fpp
/Qdiag-disable:7416 /Qdiag-disable:7025 /Qdiag-disable:5268
/Qdiag-disable:10448 /Fdsrc\libmf6core.a.p\Utilities_compilerversion.F90.pdb
/module:src\libmf6core.a.p
/Fosrc/libmf6core.a.p/Utilities_compilerversion.F90.obj /c

System command used to initiate simulation:
c:\src\imod_coupler\.pixi\envs\default\python.exe -X frozen_modules=off c:\Users\kok_hk\.vscode\extensions\ms-python.debugpy-2025.4.1-win32-x64\bundled\libs\debugpy\launcher/../..\debugpy --connect 127.0.0.1:50995 --configure-qt none --adapter-access-token a511f6a62fc208f96d28fa2530ea075f64428d7ce6a669edd1ba286928b71325 C:\src\MegaSWAP\run.py

MODFLOW was compiled using uniform precision.

Real Variables
  KIND: 8
  TINY (smallest non-zero value):    2.225074-308
  HUGE (largest value):    1.797693+308
  PRECISION: 15
  SIZE IN BITS: 64

Integer Variables
  KIND: 4
  HUGE (largest value): 2147483647
  SIZE IN BITS: 32

Long Integer Variables
  KIND: 8
  HUGE (largest value): 9223372036854775807
  SIZE IN BITS: 64

Logical Variables
  KIND: 4
  SIZE IN BITS: 32
 
 NAMEFILE OPTIONS:
 END NAMEFILE OPTIONS:

 DIS -- STRUCTURED GRID DISCRETIZATION PACKAGE, VERSION 2 : 3/27/2014 - INPUT READ FROM MEMPATH: __INPUT__/MODEL/DIS                               


 NPF -- NODE PROPERTY FLOW PACKAGE, VERSION 1, 3/30/2015 INPUT READ FROM MEMPATH: __INPUT__/MODEL/NPF                               


 IC -- Initial Conditions Package, Version 8, 3/28/2015 input read from mempath: __INPUT__/MODEL/IC                                


 Setting Discretization Options
    Model length unit [0=UND, 1=FEET, 2=METERS, 3=CENTIMETERS] set as 2
 End Setting Discretization Options

 Setting Discretization Dimensions
    NLAY = 5
    NROW = 1
    NCOL = 1
 End Setting Discretization Dimensions

 Setting Discretization Griddata
    DELR set from input file
    DELC set from input file
    TOP set from input file
    BOTM set from input file
 End Setting Discretization Griddata

 Setting NPF Options
    Cell-by-cell flow information will be saved to binary file whenever ICBCFL is not zero.
    Saturation will be written to DATA-SAT in budget file when requested.
 End Setting NPF Options

 Setting NPF Griddata
    ICELLTYPE set from input file
    K set from input file
    K33 not provided.  Setting K33 = K.
    K22 not provided.  Setting K22 = K.
 End Setting NPF Griddata


 WEL   -- WEL PACKAGE, VERSION 8, 2/22/2014 INPUT READ FROM MEMPATH: __INPUT__/MODEL/WEL-1                             

 PROCESSING WEL BASE OPTIONS
 END OF WEL BASE OPTIONS

 PROCESSING WEL OPTIONS
 END OF WEL OPTIONS

 PROCESSING WEL BASE DIMENSIONS
    MAXBOUND =       1
 END OF WEL BASE DIMENSIONS

 DRN   -- DRN PACKAGE, VERSION 8, 2/22/2014 INPUT READ FROM MEMPATH: __INPUT__/MODEL/SOF                               

 PROCESSING DRN BASE OPTIONS
    FLOWS WILL BE SAVED TO BUDGET FILE SPECIFIED IN OUTPUT CONTROL
    LISTS OF DRN CELLS WILL BE PRINTED.
    DRN FLOWS WILL BE PRINTED TO LISTING FILE.
 END OF DRN BASE OPTIONS

 PROCESSING DRN OPTIONS
 END OF DRN OPTIONS

 PROCESSING DRN BASE DIMENSIONS
    MAXBOUND =       1
 END OF DRN BASE DIMENSIONS

 GHB   -- GHB PACKAGE, VERSION 8, 2/22/2014 INPUT READ FROM MEMPATH: __INPUT__/MODEL/GHB-1                             

 PROCESSING GHB BASE OPTIONS
    FLOWS WILL BE SAVED TO BUDGET FILE SPECIFIED IN OUTPUT CONTROL
    LISTS OF GHB CELLS WILL BE PRINTED.
    GHB FLOWS WILL BE PRINTED TO LISTING FILE.
 END OF GHB BASE OPTIONS

 PROCESSING GHB OPTIONS
 END OF GHB OPTIONS

 PROCESSING GHB BASE DIMENSIONS
    MAXBOUND =       1
 END OF GHB BASE DIMENSIONS

 RCH   -- RCH PACKAGE, VERSION 8, 2/22/2014 INPUT READ FROM MEMPATH: __INPUT__/MODEL/RCH-1                             

 PROCESSING RCH BASE OPTIONS
 END OF RCH BASE OPTIONS

 PROCESSING RCH OPTIONS
 END OF RCH OPTIONS

 PROCESSING RCH BASE DIMENSIONS
    MAXBOUND =       1
 END OF RCH BASE DIMENSIONS
    STRT set from input file

 STO -- STORAGE PACKAGE, VERSION 1, 5/19/2014 INPUT READ FROM MEMPATH: __INPUT__/MODEL/STO                               


 PROCESSING STORAGE OPTIONS
    CELL-BY-CELL FLOW INFORMATION WILL BE SAVED TO BINARY FILE WHENEVER ICBCFL IS NOT ZERO.
    STORAGECOEFFICIENT OPTION:
 Read storage coefficient rather than specific storage
 END OF STORAGE OPTIONS
    BINARY GRID INFORMATION WILL BE WRITTEN TO:
      UNIT NUMBER: 1017
      FILE NAME: model.dis.grb

 OPENED model.dis.grb
 FILE TYPE:DATA(BINARY)   UNIT 1017   STATUS:REPLACE             
 FORMAT:UNFORMATTED            ACCESS:STREAM              
 ACTION:READWRITE           

      THE LAST TIME STEP WILL BE PRINTED
      THE LAST TIME STEP WILL BE PRINTED

 PROCESSING OC OPTIONS

    HEAD INFORMATION WILL BE WRITTEN TO:
      UNIT NUMBER: 1018
      FILE NAME: flow.hds

 OPENED flow.hds
 FILE TYPE:DATA(BINARY)   UNIT 1018   STATUS:REPLACE             
 FORMAT:UNFORMATTED            ACCESS:STREAM              
 ACTION:READWRITE           

    BUDGET INFORMATION WILL BE WRITTEN TO:
      UNIT NUMBER: 1019
      FILE NAME: flow.cbc

 OPENED flow.cbc
 FILE TYPE:DATA(BINARY)   UNIT 1019   STATUS:REPLACE             
 FORMAT:UNFORMATTED            ACCESS:STREAM              
 ACTION:READWRITE           

 END OF OC OPTIONS

start timestep kper="1" kstp="1" mode="normal"


 BEGIN READING OUTPUT CONTROL FOR STRESS PERIOD 1
      ALL TIME STEPS WILL BE SAVED
      ALL TIME STEPS WILL BE SAVED

 END READING OUTPUT CONTROL FOR STRESS PERIOD 1


 PROCESSING STORAGE PERIOD DATA
 END PROCESSING STORAGE PERIOD DATA


 STRESS PERIOD 1 IS TRANSIENT

 ----------------------------------
  DRN NO.    LAYER    ROW     COL  
 ----------------------------------
     1         1       1       1   
 ----------------------------------


 ----------------------------------
  GHB NO.    LAYER    ROW     COL  
 ----------------------------------
     1         5       1       1   
 ----------------------------------


 UBDSV1 SAVING           STO-SS ON UNIT   1019 AT TIME STEP      1, STRESS PERIOD      1
 UBDSV1 SAVING     FLOW-JA-FACE ON UNIT   1019 AT TIME STEP      1, STRESS PERIOD      1
 UBDSV06 SAVING         DATA-SAT IN MODEL MODEL            PACKAGE NPF             CONNECTED TO MODEL MODEL            PACKAGE NPF              ON UNIT   1019 AT TIME STEP      1, STRESS PERIOD      1
 UBDSV06 SAVING              DRN IN MODEL MODEL            PACKAGE MODEL           CONNECTED TO MODEL MODEL            PACKAGE SOF              ON UNIT   1019 AT TIME STEP      1, STRESS PERIOD      1
 UBDSV06 SAVING              GHB IN MODEL MODEL            PACKAGE MODEL           CONNECTED TO MODEL MODEL            PACKAGE GHB-1            ON UNIT   1019 AT TIME STEP      1, STRESS PERIOD      1

 DRN PACKAGE (SOF) FLOW RATES   PERIOD      1   STEP        1
 -----------------------------------------------
   NUMBER   CELLID                    RATE      
 -----------------------------------------------
     1      (1,1,1)               0.0000000     
 -----------------------------------------------




 GHB PACKAGE (GHB-1) FLOW RATES   PERIOD      1   STEP        1
 -----------------------------------------------
   NUMBER   CELLID                    RATE      
 -----------------------------------------------
     1      (5,1,1)              -1.73508747E-04
 -----------------------------------------------




 HEAD WILL BE SAVED ON UNIT 1018 AT END OF TIME STEP    1, STRESS PERIOD    1


  VOLUME BUDGET FOR ENTIRE MODEL AT END OF TIME STEP    1, STRESS PERIOD   1
  ---------------------------------------------------------------------------------------------------

     CUMULATIVE VOLUME      L**3       RATES FOR THIS TIME STEP      L**3/T          PACKAGE NAME    
     ------------------                 ------------------------                     ----------------

           IN:                                      IN:
           ---                                      ---
              STO-SS =           0.0000                STO-SS =           0.0000     STORAGE                          
                 WEL =           0.0000                   WEL =           0.0000     WEL-1                            
                 DRN =           0.0000                   DRN =           0.0000     SOF                              
                 GHB =           0.0000                   GHB =           0.0000     GHB-1                            
                 RCH =       1.6639E-02                   RCH =       1.6639E-02     RCH-1                            

            TOTAL IN =       1.6639E-02              TOTAL IN =       1.6639E-02

          OUT:                                     OUT:
          ----                                     ----
              STO-SS =       1.6465E-02                STO-SS =       1.6465E-02     STORAGE                          
                 WEL =           0.0000                   WEL =           0.0000     WEL-1                            
                 DRN =           0.0000                   DRN =           0.0000     SOF                              
                 GHB =       1.7351E-04                   GHB =       1.7351E-04     GHB-1                            
                 RCH =           0.0000                   RCH =           0.0000     RCH-1                            

           TOTAL OUT =       1.6639E-02             TOTAL OUT =       1.6639E-02

            IN - OUT =       7.6517E-13              IN - OUT =       7.6517E-13

 PERCENT DISCREPANCY =           0.00     PERCENT DISCREPANCY =           0.00




         TIME SUMMARY AT END OF TIME STEP    1 IN STRESS PERIOD    1
                    SECONDS     MINUTES      HOURS       DAYS        YEARS
                    -----------------------------------------------------------
   TIME STEP LENGTH  86400.      1440.0      24.000      1.0000     2.73785E-03
 STRESS PERIOD TIME  86400.      1440.0      24.000      1.0000     2.73785E-03
         TOTAL TIME  86400.      1440.0      24.000      1.0000     2.73785E-03


end timestep


start timestep kper="2" kstp="1" mode="normal"


 END OF FILE DETECTED IN OUTPUT CONTROL.
 CURRENT OUTPUT CONTROL SETTINGS WILL BE 
 REPEATED UNTIL THE END OF THE SIMULATION.

 OUTPUT CONTROL FOR STRESS PERIOD 2 IS REPEATED USING SETTINGS FROM A PREVIOUS STRESS PERIOD.
 UBDSV1 SAVING           STO-SS ON UNIT   1019 AT TIME STEP      1, STRESS PERIOD      2
 UBDSV1 SAVING     FLOW-JA-FACE ON UNIT   1019 AT TIME STEP      1, STRESS PERIOD      2
 UBDSV06 SAVING         DATA-SAT IN MODEL MODEL            PACKAGE NPF             CONNECTED TO MODEL MODEL            PACKAGE NPF              ON UNIT   1019 AT TIME STEP      1, STRESS PERIOD      2
 UBDSV06 SAVING              DRN IN MODEL MODEL            PACKAGE MODEL           CONNECTED TO MODEL MODEL            PACKAGE SOF              ON UNIT   1019 AT TIME STEP      1, STRESS PERIOD      2
 UBDSV06 SAVING              GHB IN MODEL MODEL            PACKAGE MODEL           CONNECTED TO MODEL MODEL            PACKAGE GHB-1            ON UNIT   1019 AT TIME STEP      1, STRESS PERIOD      2

 DRN PACKAGE (SOF) FLOW RATES   PERIOD      2   STEP        1
 -----------------------------------------------
   NUMBER   CELLID                    RATE      
 -----------------------------------------------
     1      (1,1,1)               0.0000000     
 -----------------------------------------------




 GHB PACKAGE (GHB-1) FLOW RATES   PERIOD      2   STEP        1
 -----------------------------------------------
   NUMBER   CELLID                    RATE      
 -----------------------------------------------
     1      (5,1,1)              -3.74688341E-04
 -----------------------------------------------




 HEAD WILL BE SAVED ON UNIT 1018 AT END OF TIME STEP    1, STRESS PERIOD    2


  VOLUME BUDGET FOR ENTIRE MODEL AT END OF TIME STEP    1, STRESS PERIOD   2
  ---------------------------------------------------------------------------------------------------

     CUMULATIVE VOLUME      L**3       RATES FOR THIS TIME STEP      L**3/T          PACKAGE NAME    
     ------------------                 ------------------------                     ----------------

           IN:                                      IN:
           ---                                      ---
              STO-SS =           0.0000                STO-SS =           0.0000     STORAGE                          
                 WEL =           0.0000                   WEL =           0.0000     WEL-1                            
                 DRN =           0.0000                   DRN =           0.0000     SOF                              
                 GHB =           0.0000                   GHB =           0.0000     GHB-1                            
                 RCH =       3.3270E-02                   RCH =       1.6631E-02     RCH-1                            

            TOTAL IN =       3.3270E-02              TOTAL IN =       1.6631E-02

          OUT:                                     OUT:
          ----                                     ----
              STO-SS =       3.2722E-02                STO-SS =       1.6256E-02     STORAGE                          
                 WEL =           0.0000                   WEL =           0.0000     WEL-1                            
                 DRN =           0.0000                   DRN =           0.0000     SOF                              
                 GHB =       5.4820E-04                   GHB =       3.7469E-04     GHB-1                            
                 RCH =           0.0000                   RCH =           0.0000     RCH-1                            

           TOTAL OUT =       3.3270E-02             TOTAL OUT =       1.6631E-02

            IN - OUT =       7.8438E-13              IN - OUT =       1.9210E-14

 PERCENT DISCREPANCY =           0.00     PERCENT DISCREPANCY =           0.00




         TIME SUMMARY AT END OF TIME STEP    1 IN STRESS PERIOD    2
                    SECONDS     MINUTES      HOURS       DAYS        YEARS
                    -----------------------------------------------------------
   TIME STEP LENGTH  86400.      1440.0      24.000      1.0000     2.73785E-03
 STRESS PERIOD TIME  86400.      1440.0      24.000      1.0000     2.73785E-03
         TOTAL TIME 1.72800E+05  2880.0      48.000      2.0000     5.47570E-03


end timestep


start timestep kper="3" kstp="1" mode="normal"


 OUTPUT CONTROL FOR STRESS PERIOD 3 IS REPEATED USING SETTINGS FROM A PREVIOUS STRESS PERIOD.
 UBDSV1 SAVING           STO-SS ON UNIT   1019 AT TIME STEP      1, STRESS PERIOD      3
 UBDSV1 SAVING     FLOW-JA-FACE ON UNIT   1019 AT TIME STEP      1, STRESS PERIOD      3
 UBDSV06 SAVING         DATA-SAT IN MODEL MODEL            PACKAGE NPF             CONNECTED TO MODEL MODEL            PACKAGE NPF              ON UNIT   1019 AT TIME STEP      1, STRESS PERIOD      3
 UBDSV06 SAVING              DRN IN MODEL MODEL            PACKAGE MODEL           CONNECTED TO MODEL MODEL            PACKAGE SOF              ON UNIT   1019 AT TIME STEP      1, STRESS PERIOD      3
 UBDSV06 SAVING              GHB IN MODEL MODEL            PACKAGE MODEL           CONNECTED TO MODEL MODEL            PACKAGE GHB-1            ON UNIT   1019 AT TIME STEP      1, STRESS PERIOD      3

 DRN PACKAGE (SOF) FLOW RATES   PERIOD      3   STEP        1
 -----------------------------------------------
   NUMBER   CELLID                    RATE      
 -----------------------------------------------
     1      (1,1,1)               0.0000000     
 -----------------------------------------------




 GHB PACKAGE (GHB-1) FLOW RATES   PERIOD      3   STEP        1
 -----------------------------------------------
   NUMBER   CELLID                    RATE      
 -----------------------------------------------
     1      (5,1,1)              -5.77644610E-04
 -----------------------------------------------




 HEAD WILL BE SAVED ON UNIT 1018 AT END OF TIME STEP    1, STRESS PERIOD    3


  VOLUME BUDGET FOR ENTIRE MODEL AT END OF TIME STEP    1, STRESS PERIOD   3
  ---------------------------------------------------------------------------------------------------

     CUMULATIVE VOLUME      L**3       RATES FOR THIS TIME STEP      L**3/T          PACKAGE NAME    
     ------------------                 ------------------------                     ----------------

           IN:                                      IN:
           ---                                      ---
              STO-SS =           0.0000                STO-SS =           0.0000     STORAGE                          
                 WEL =           0.0000                   WEL =           0.0000     WEL-1                            
                 DRN =           0.0000                   DRN =           0.0000     SOF                              
                 GHB =           0.0000                   GHB =           0.0000     GHB-1                            
                 RCH =       4.9899E-02                   RCH =       1.6630E-02     RCH-1                            

            TOTAL IN =       4.9899E-02              TOTAL IN =       1.6630E-02

          OUT:                                     OUT:
          ----                                     ----
              STO-SS =       4.8773E-02                STO-SS =       1.6052E-02     STORAGE                          
                 WEL =           0.0000                   WEL =           0.0000     WEL-1                            
                 DRN =           0.0000                   DRN =           0.0000     SOF                              
                 GHB =       1.1258E-03                   GHB =       5.7764E-04     GHB-1                            
                 RCH =           0.0000                   RCH =           0.0000     RCH-1                            

           TOTAL OUT =       4.9899E-02             TOTAL OUT =       1.6630E-02

            IN - OUT =       8.0554E-13              IN - OUT =       2.1153E-14

 PERCENT DISCREPANCY =           0.00     PERCENT DISCREPANCY =           0.00




         TIME SUMMARY AT END OF TIME STEP    1 IN STRESS PERIOD    3
                    SECONDS     MINUTES      HOURS       DAYS        YEARS
                    -----------------------------------------------------------
   TIME STEP LENGTH  86400.      1440.0      24.000      1.0000     2.73785E-03
 STRESS PERIOD TIME  86400.      1440.0      24.000      1.0000     2.73785E-03
         TOTAL TIME 2.59200E+05  4320.0      72.000      3.0000     8.21355E-03


end timestep


start timestep kper="4" kstp="1" mode="normal"


 OUTPUT CONTROL FOR STRESS PERIOD 4 IS REPEATED USING SETTINGS FROM A PREVIOUS STRESS PERIOD.
 UBDSV1 SAVING           STO-SS ON UNIT   1019 AT TIME STEP      1, STRESS PERIOD      4
 UBDSV1 SAVING     FLOW-JA-FACE ON UNIT   1019 AT TIME STEP      1, STRESS PERIOD      4
 UBDSV06 SAVING         DATA-SAT IN MODEL MODEL            PACKAGE NPF             CONNECTED TO MODEL MODEL            PACKAGE NPF              ON UNIT   1019 AT TIME STEP      1, STRESS PERIOD      4
 UBDSV06 SAVING              DRN IN MODEL MODEL            PACKAGE MODEL           CONNECTED TO MODEL MODEL            PACKAGE SOF              ON UNIT   1019 AT TIME STEP      1, STRESS PERIOD      4
 UBDSV06 SAVING              GHB IN MODEL MODEL            PACKAGE MODEL           CONNECTED TO MODEL MODEL            PACKAGE GHB-1            ON UNIT   1019 AT TIME STEP      1, STRESS PERIOD      4

 DRN PACKAGE (SOF) FLOW RATES   PERIOD      4   STEP        1
 -----------------------------------------------
   NUMBER   CELLID                    RATE      
 -----------------------------------------------
     1      (1,1,1)               0.0000000     
 -----------------------------------------------




 GHB PACKAGE (GHB-1) FLOW RATES   PERIOD      4   STEP        1
 -----------------------------------------------
   NUMBER   CELLID                    RATE      
 -----------------------------------------------
     1      (5,1,1)              -7.78851727E-04
 -----------------------------------------------




 HEAD WILL BE SAVED ON UNIT 1018 AT END OF TIME STEP    1, STRESS PERIOD    4


  VOLUME BUDGET FOR ENTIRE MODEL AT END OF TIME STEP    1, STRESS PERIOD   4
  ---------------------------------------------------------------------------------------------------

     CUMULATIVE VOLUME      L**3       RATES FOR THIS TIME STEP      L**3/T          PACKAGE NAME    
     ------------------                 ------------------------                     ----------------

           IN:                                      IN:
           ---                                      ---
              STO-SS =           0.0000                STO-SS =           0.0000     STORAGE                          
                 WEL =           0.0000                   WEL =           0.0000     WEL-1                            
                 DRN =           0.0000                   DRN =           0.0000     SOF                              
                 GHB =           0.0000                   GHB =           0.0000     GHB-1                            
                 RCH =       6.6540E-02                   RCH =       1.6641E-02     RCH-1                            

            TOTAL IN =       6.6540E-02              TOTAL IN =       1.6641E-02

          OUT:                                     OUT:
          ----                                     ----
              STO-SS =       6.4635E-02                STO-SS =       1.5862E-02     STORAGE                          
                 WEL =           0.0000                   WEL =           0.0000     WEL-1                            
                 DRN =           0.0000                   DRN =           0.0000     SOF                              
                 GHB =       1.9047E-03                   GHB =       7.7885E-04     GHB-1                            
                 RCH =           0.0000                   RCH =           0.0000     RCH-1                            

           TOTAL OUT =       6.6540E-02             TOTAL OUT =       1.6641E-02

            IN - OUT =       8.3329E-13              IN - OUT =       2.7759E-14

 PERCENT DISCREPANCY =           0.00     PERCENT DISCREPANCY =           0.00




         TIME SUMMARY AT END OF TIME STEP    1 IN STRESS PERIOD    4
                    SECONDS     MINUTES      HOURS       DAYS        YEARS
                    -----------------------------------------------------------
   TIME STEP LENGTH  86400.      1440.0      24.000      1.0000     2.73785E-03
 STRESS PERIOD TIME  86400.      1440.0      24.000      1.0000     2.73785E-03
         TOTAL TIME 3.45600E+05  5760.0      96.000      4.0000     1.09514E-02


end timestep


start timestep kper="5" kstp="1" mode="normal"


 OUTPUT CONTROL FOR STRESS PERIOD 5 IS REPEATED USING SETTINGS FROM A PREVIOUS STRESS PERIOD.
 UBDSV1 SAVING           STO-SS ON UNIT   1019 AT TIME STEP      1, STRESS PERIOD      5
 UBDSV1 SAVING     FLOW-JA-FACE ON UNIT   1019 AT TIME STEP      1, STRESS PERIOD      5
 UBDSV06 SAVING         DATA-SAT IN MODEL MODEL            PACKAGE NPF             CONNECTED TO MODEL MODEL            PACKAGE NPF              ON UNIT   1019 AT TIME STEP      1, STRESS PERIOD      5
 UBDSV06 SAVING              DRN IN MODEL MODEL            PACKAGE MODEL           CONNECTED TO MODEL MODEL            PACKAGE SOF              ON UNIT   1019 AT TIME STEP      1, STRESS PERIOD      5
 UBDSV06 SAVING              GHB IN MODEL MODEL            PACKAGE MODEL           CONNECTED TO MODEL MODEL            PACKAGE GHB-1            ON UNIT   1019 AT TIME STEP      1, STRESS PERIOD      5

 DRN PACKAGE (SOF) FLOW RATES   PERIOD      5   STEP        1
 -----------------------------------------------
   NUMBER   CELLID                    RATE      
 -----------------------------------------------
     1      (1,1,1)               0.0000000     
 -----------------------------------------------




 GHB PACKAGE (GHB-1) FLOW RATES   PERIOD      5   STEP        1
 -----------------------------------------------
   NUMBER   CELLID                    RATE      
 -----------------------------------------------
     1      (5,1,1)              -9.78017373E-04
 -----------------------------------------------




 HEAD WILL BE SAVED ON UNIT 1018 AT END OF TIME STEP    1, STRESS PERIOD    5


  VOLUME BUDGET FOR ENTIRE MODEL AT END OF TIME STEP    1, STRESS PERIOD   5
  ---------------------------------------------------------------------------------------------------

     CUMULATIVE VOLUME      L**3       RATES FOR THIS TIME STEP      L**3/T          PACKAGE NAME    
     ------------------                 ------------------------                     ----------------

           IN:                                      IN:
           ---                                      ---
              STO-SS =           0.0000                STO-SS =           0.0000     STORAGE                          
                 WEL =           0.0000                   WEL =           0.0000     WEL-1                            
                 DRN =           0.0000                   DRN =           0.0000     SOF                              
                 GHB =           0.0000                   GHB =           0.0000     GHB-1                            
                 RCH =       8.3204E-02                   RCH =       1.6665E-02     RCH-1                            

            TOTAL IN =       8.3204E-02              TOTAL IN =       1.6665E-02

          OUT:                                     OUT:
          ----                                     ----
              STO-SS =       8.0322E-02                STO-SS =       1.5687E-02     STORAGE                          
                 WEL =           0.0000                   WEL =           0.0000     WEL-1                            
                 DRN =           0.0000                   DRN =           0.0000     SOF                              
                 GHB =       2.8827E-03                   GHB =       9.7802E-04     GHB-1                            
                 RCH =           0.0000                   RCH =           0.0000     RCH-1                            

           TOTAL OUT =       8.3204E-02             TOTAL OUT =       1.6665E-02

            IN - OUT =       8.5250E-13              IN - OUT =       1.9210E-14

 PERCENT DISCREPANCY =           0.00     PERCENT DISCREPANCY =           0.00




         TIME SUMMARY AT END OF TIME STEP    1 IN STRESS PERIOD    5
                    SECONDS     MINUTES      HOURS       DAYS        YEARS
                    -----------------------------------------------------------
   TIME STEP LENGTH  86400.      1440.0      24.000      1.0000     2.73785E-03
 STRESS PERIOD TIME  86400.      1440.0      24.000      1.0000     2.73785E-03
         TOTAL TIME 4.32000E+05  7200.0      120.00      5.0000     1.36893E-02


end timestep


start timestep kper="6" kstp="1" mode="normal"


 OUTPUT CONTROL FOR STRESS PERIOD 6 IS REPEATED USING SETTINGS FROM A PREVIOUS STRESS PERIOD.
 UBDSV1 SAVING           STO-SS ON UNIT   1019 AT TIME STEP      1, STRESS PERIOD      6
 UBDSV1 SAVING     FLOW-JA-FACE ON UNIT   1019 AT TIME STEP      1, STRESS PERIOD      6
 UBDSV06 SAVING         DATA-SAT IN MODEL MODEL            PACKAGE NPF             CONNECTED TO MODEL MODEL            PACKAGE NPF              ON UNIT   1019 AT TIME STEP      1, STRESS PERIOD      6
 UBDSV06 SAVING              DRN IN MODEL MODEL            PACKAGE MODEL           CONNECTED TO MODEL MODEL            PACKAGE SOF              ON UNIT   1019 AT TIME STEP      1, STRESS PERIOD      6
 UBDSV06 SAVING              GHB IN MODEL MODEL            PACKAGE MODEL           CONNECTED TO MODEL MODEL            PACKAGE GHB-1            ON UNIT   1019 AT TIME STEP      1, STRESS PERIOD      6

 DRN PACKAGE (SOF) FLOW RATES   PERIOD      6   STEP        1
 -----------------------------------------------
   NUMBER   CELLID                    RATE      
 -----------------------------------------------
     1      (1,1,1)               0.0000000     
 -----------------------------------------------




 GHB PACKAGE (GHB-1) FLOW RATES   PERIOD      6   STEP        1
 -----------------------------------------------
   NUMBER   CELLID                    RATE      
 -----------------------------------------------
     1      (5,1,1)              -1.17534807E-03
 -----------------------------------------------




 HEAD WILL BE SAVED ON UNIT 1018 AT END OF TIME STEP    1, STRESS PERIOD    6


  VOLUME BUDGET FOR ENTIRE MODEL AT END OF TIME STEP    1, STRESS PERIOD   6
  ---------------------------------------------------------------------------------------------------

     CUMULATIVE VOLUME      L**3       RATES FOR THIS TIME STEP      L**3/T          PACKAGE NAME    
     ------------------                 ------------------------                     ----------------

           IN:                                      IN:
           ---                                      ---
              STO-SS =           0.0000                STO-SS =           0.0000     STORAGE                          
                 WEL =           0.0000                   WEL =           0.0000     WEL-1                            
                 DRN =           0.0000                   DRN =           0.0000     SOF                              
                 GHB =           0.0000                   GHB =           0.0000     GHB-1                            
                 RCH =       9.9911E-02                   RCH =       1.6706E-02     RCH-1                            

            TOTAL IN =       9.9911E-02              TOTAL IN =       1.6706E-02

          OUT:                                     OUT:
          ----                                     ----
              STO-SS =       9.5853E-02                STO-SS =       1.5531E-02     STORAGE                          
                 WEL =           0.0000                   WEL =           0.0000     WEL-1                            
                 DRN =           0.0000                   DRN =           0.0000     SOF                              
                 GHB =       4.0581E-03                   GHB =       1.1753E-03     GHB-1                            
                 RCH =           0.0000                   RCH =           0.0000     RCH-1                            

           TOTAL OUT =       9.9911E-02             TOTAL OUT =       1.6706E-02

            IN - OUT =       8.8009E-13              IN - OUT =       2.7593E-14

 PERCENT DISCREPANCY =           0.00     PERCENT DISCREPANCY =           0.00




         TIME SUMMARY AT END OF TIME STEP    1 IN STRESS PERIOD    6
                    SECONDS     MINUTES      HOURS       DAYS        YEARS
                    -----------------------------------------------------------
   TIME STEP LENGTH  86400.      1440.0      24.000      1.0000     2.73785E-03
 STRESS PERIOD TIME  86400.      1440.0      24.000      1.0000     2.73785E-03
         TOTAL TIME 5.18400E+05  8640.0      144.00      6.0000     1.64271E-02


end timestep


start timestep kper="7" kstp="1" mode="normal"


 OUTPUT CONTROL FOR STRESS PERIOD 7 IS REPEATED USING SETTINGS FROM A PREVIOUS STRESS PERIOD.
 UBDSV1 SAVING           STO-SS ON UNIT   1019 AT TIME STEP      1, STRESS PERIOD      7
 UBDSV1 SAVING     FLOW-JA-FACE ON UNIT   1019 AT TIME STEP      1, STRESS PERIOD      7
 UBDSV06 SAVING         DATA-SAT IN MODEL MODEL            PACKAGE NPF             CONNECTED TO MODEL MODEL            PACKAGE NPF              ON UNIT   1019 AT TIME STEP      1, STRESS PERIOD      7
 UBDSV06 SAVING              DRN IN MODEL MODEL            PACKAGE MODEL           CONNECTED TO MODEL MODEL            PACKAGE SOF              ON UNIT   1019 AT TIME STEP      1, STRESS PERIOD      7
 UBDSV06 SAVING              GHB IN MODEL MODEL            PACKAGE MODEL           CONNECTED TO MODEL MODEL            PACKAGE GHB-1            ON UNIT   1019 AT TIME STEP      1, STRESS PERIOD      7

 DRN PACKAGE (SOF) FLOW RATES   PERIOD      7   STEP        1
 -----------------------------------------------
   NUMBER   CELLID                    RATE      
 -----------------------------------------------
     1      (1,1,1)               0.0000000     
 -----------------------------------------------




 GHB PACKAGE (GHB-1) FLOW RATES   PERIOD      7   STEP        1
 -----------------------------------------------
   NUMBER   CELLID                    RATE      
 -----------------------------------------------
     1      (5,1,1)              -1.37116830E-03
 -----------------------------------------------




 HEAD WILL BE SAVED ON UNIT 1018 AT END OF TIME STEP    1, STRESS PERIOD    7


  VOLUME BUDGET FOR ENTIRE MODEL AT END OF TIME STEP    1, STRESS PERIOD   7
  ---------------------------------------------------------------------------------------------------

     CUMULATIVE VOLUME      L**3       RATES FOR THIS TIME STEP      L**3/T          PACKAGE NAME    
     ------------------                 ------------------------                     ----------------

           IN:                                      IN:
           ---                                      ---
              STO-SS =           0.0000                STO-SS =           0.0000     STORAGE                          
                 WEL =           0.0000                   WEL =           0.0000     WEL-1                            
                 DRN =           0.0000                   DRN =           0.0000     SOF                              
                 GHB =           0.0000                   GHB =           0.0000     GHB-1                            
                 RCH =           0.1167                   RCH =       1.6770E-02     RCH-1                            

            TOTAL IN =           0.1167              TOTAL IN =       1.6770E-02

          OUT:                                     OUT:
          ----                                     ----
              STO-SS =           0.1113                STO-SS =       1.5399E-02     STORAGE                          
                 WEL =           0.0000                   WEL =           0.0000     WEL-1                            
                 DRN =           0.0000                   DRN =           0.0000     SOF                              
                 GHB =       5.4292E-03                   GHB =       1.3712E-03     GHB-1                            
                 RCH =           0.0000                   RCH =           0.0000     RCH-1                            

           TOTAL OUT =           0.1167             TOTAL OUT =       1.6770E-02

            IN - OUT =       9.0712E-13              IN - OUT =       2.7037E-14

 PERCENT DISCREPANCY =           0.00     PERCENT DISCREPANCY =           0.00




         TIME SUMMARY AT END OF TIME STEP    1 IN STRESS PERIOD    7
                    SECONDS     MINUTES      HOURS       DAYS        YEARS
                    -----------------------------------------------------------
   TIME STEP LENGTH  86400.      1440.0      24.000      1.0000     2.73785E-03
 STRESS PERIOD TIME  86400.      1440.0      24.000      1.0000     2.73785E-03
         TOTAL TIME 6.04800E+05  10080.      168.00      7.0000     1.91650E-02


end timestep


start timestep kper="8" kstp="1" mode="normal"


 OUTPUT CONTROL FOR STRESS PERIOD 8 IS REPEATED USING SETTINGS FROM A PREVIOUS STRESS PERIOD.
 UBDSV1 SAVING           STO-SS ON UNIT   1019 AT TIME STEP      1, STRESS PERIOD      8
 UBDSV1 SAVING     FLOW-JA-FACE ON UNIT   1019 AT TIME STEP      1, STRESS PERIOD      8
 UBDSV06 SAVING         DATA-SAT IN MODEL MODEL            PACKAGE NPF             CONNECTED TO MODEL MODEL            PACKAGE NPF              ON UNIT   1019 AT TIME STEP      1, STRESS PERIOD      8
 UBDSV06 SAVING              DRN IN MODEL MODEL            PACKAGE MODEL           CONNECTED TO MODEL MODEL            PACKAGE SOF              ON UNIT   1019 AT TIME STEP      1, STRESS PERIOD      8
 UBDSV06 SAVING              GHB IN MODEL MODEL            PACKAGE MODEL           CONNECTED TO MODEL MODEL            PACKAGE GHB-1            ON UNIT   1019 AT TIME STEP      1, STRESS PERIOD      8

 DRN PACKAGE (SOF) FLOW RATES   PERIOD      8   STEP        1
 -----------------------------------------------
   NUMBER   CELLID                    RATE      
 -----------------------------------------------
     1      (1,1,1)               0.0000000     
 -----------------------------------------------




 GHB PACKAGE (GHB-1) FLOW RATES   PERIOD      8   STEP        1
 -----------------------------------------------
   NUMBER   CELLID                    RATE      
 -----------------------------------------------
     1      (5,1,1)              -1.56585349E-03
 -----------------------------------------------




 HEAD WILL BE SAVED ON UNIT 1018 AT END OF TIME STEP    1, STRESS PERIOD    8


  VOLUME BUDGET FOR ENTIRE MODEL AT END OF TIME STEP    1, STRESS PERIOD   8
  ---------------------------------------------------------------------------------------------------

     CUMULATIVE VOLUME      L**3       RATES FOR THIS TIME STEP      L**3/T          PACKAGE NAME    
     ------------------                 ------------------------                     ----------------

           IN:                                      IN:
           ---                                      ---
              STO-SS =           0.0000                STO-SS =           0.0000     STORAGE                          
                 WEL =           0.0000                   WEL =           0.0000     WEL-1                            
                 DRN =           0.0000                   DRN =           0.0000     SOF                              
                 GHB =           0.0000                   GHB =           0.0000     GHB-1                            
                 RCH =           0.1335                   RCH =       1.6859E-02     RCH-1                            

            TOTAL IN =           0.1335              TOTAL IN =       1.6859E-02

          OUT:                                     OUT:
          ----                                     ----
              STO-SS =           0.1265                STO-SS =       1.5293E-02     STORAGE                          
                 WEL =           0.0000                   WEL =           0.0000     WEL-1                            
                 DRN =           0.0000                   DRN =           0.0000     SOF                              
                 GHB =       6.9951E-03                   GHB =       1.5659E-03     GHB-1                            
                 RCH =           0.0000                   RCH =           0.0000     RCH-1                            

           TOTAL OUT =           0.1335             TOTAL OUT =       1.6859E-02

            IN - OUT =       9.3395E-13              IN - OUT =       2.6815E-14

 PERCENT DISCREPANCY =           0.00     PERCENT DISCREPANCY =           0.00




         TIME SUMMARY AT END OF TIME STEP    1 IN STRESS PERIOD    8
                    SECONDS     MINUTES      HOURS       DAYS        YEARS
                    -----------------------------------------------------------
   TIME STEP LENGTH  86400.      1440.0      24.000      1.0000     2.73785E-03
 STRESS PERIOD TIME  86400.      1440.0      24.000      1.0000     2.73785E-03
         TOTAL TIME 6.91200E+05  11520.      192.00      8.0000     2.19028E-02


end timestep


start timestep kper="9" kstp="1" mode="normal"


 OUTPUT CONTROL FOR STRESS PERIOD 9 IS REPEATED USING SETTINGS FROM A PREVIOUS STRESS PERIOD.
 UBDSV1 SAVING           STO-SS ON UNIT   1019 AT TIME STEP      1, STRESS PERIOD      9
 UBDSV1 SAVING     FLOW-JA-FACE ON UNIT   1019 AT TIME STEP      1, STRESS PERIOD      9
 UBDSV06 SAVING         DATA-SAT IN MODEL MODEL            PACKAGE NPF             CONNECTED TO MODEL MODEL            PACKAGE NPF              ON UNIT   1019 AT TIME STEP      1, STRESS PERIOD      9
 UBDSV06 SAVING              DRN IN MODEL MODEL            PACKAGE MODEL           CONNECTED TO MODEL MODEL            PACKAGE SOF              ON UNIT   1019 AT TIME STEP      1, STRESS PERIOD      9
 UBDSV06 SAVING              GHB IN MODEL MODEL            PACKAGE MODEL           CONNECTED TO MODEL MODEL            PACKAGE GHB-1            ON UNIT   1019 AT TIME STEP      1, STRESS PERIOD      9

 DRN PACKAGE (SOF) FLOW RATES   PERIOD      9   STEP        1
 -----------------------------------------------
   NUMBER   CELLID                    RATE      
 -----------------------------------------------
     1      (1,1,1)               0.0000000     
 -----------------------------------------------




 GHB PACKAGE (GHB-1) FLOW RATES   PERIOD      9   STEP        1
 -----------------------------------------------
   NUMBER   CELLID                    RATE      
 -----------------------------------------------
     1      (5,1,1)              -1.75983135E-03
 -----------------------------------------------




 HEAD WILL BE SAVED ON UNIT 1018 AT END OF TIME STEP    1, STRESS PERIOD    9


  VOLUME BUDGET FOR ENTIRE MODEL AT END OF TIME STEP    1, STRESS PERIOD   9
  ---------------------------------------------------------------------------------------------------

     CUMULATIVE VOLUME      L**3       RATES FOR THIS TIME STEP      L**3/T          PACKAGE NAME    
     ------------------                 ------------------------                     ----------------

           IN:                                      IN:
           ---                                      ---
              STO-SS =           0.0000                STO-SS =           0.0000     STORAGE                          
                 WEL =           0.0000                   WEL =           0.0000     WEL-1                            
                 DRN =           0.0000                   DRN =           0.0000     SOF                              
                 GHB =           0.0000                   GHB =           0.0000     GHB-1                            
                 RCH =           0.1505                   RCH =       1.6977E-02     RCH-1                            

            TOTAL IN =           0.1505              TOTAL IN =       1.6977E-02

          OUT:                                     OUT:
          ----                                     ----
              STO-SS =           0.1418                STO-SS =       1.5217E-02     STORAGE                          
                 WEL =           0.0000                   WEL =           0.0000     WEL-1                            
                 DRN =           0.0000                   DRN =           0.0000     SOF                              
                 GHB =       8.7549E-03                   GHB =       1.7598E-03     GHB-1                            
                 RCH =           0.0000                   RCH =           0.0000     RCH-1                            

           TOTAL OUT =           0.1505             TOTAL OUT =       1.6977E-02

            IN - OUT =       9.5871E-13              IN - OUT =       2.4761E-14

 PERCENT DISCREPANCY =           0.00     PERCENT DISCREPANCY =           0.00




         TIME SUMMARY AT END OF TIME STEP    1 IN STRESS PERIOD    9
                    SECONDS     MINUTES      HOURS       DAYS        YEARS
                    -----------------------------------------------------------
   TIME STEP LENGTH  86400.      1440.0      24.000      1.0000     2.73785E-03
 STRESS PERIOD TIME  86400.      1440.0      24.000      1.0000     2.73785E-03
         TOTAL TIME 7.77600E+05  12960.      216.00      9.0000     2.46407E-02


end timestep


start timestep kper="10" kstp="1" mode="normal"


 OUTPUT CONTROL FOR STRESS PERIOD 10 IS REPEATED USING SETTINGS FROM A PREVIOUS STRESS PERIOD.
 UBDSV1 SAVING           STO-SS ON UNIT   1019 AT TIME STEP      1, STRESS PERIOD     10
 UBDSV1 SAVING     FLOW-JA-FACE ON UNIT   1019 AT TIME STEP      1, STRESS PERIOD     10
 UBDSV06 SAVING         DATA-SAT IN MODEL MODEL            PACKAGE NPF             CONNECTED TO MODEL MODEL            PACKAGE NPF              ON UNIT   1019 AT TIME STEP      1, STRESS PERIOD     10
 UBDSV06 SAVING              DRN IN MODEL MODEL            PACKAGE MODEL           CONNECTED TO MODEL MODEL            PACKAGE SOF              ON UNIT   1019 AT TIME STEP      1, STRESS PERIOD     10
 UBDSV06 SAVING              GHB IN MODEL MODEL            PACKAGE MODEL           CONNECTED TO MODEL MODEL            PACKAGE GHB-1            ON UNIT   1019 AT TIME STEP      1, STRESS PERIOD     10

 DRN PACKAGE (SOF) FLOW RATES   PERIOD     10   STEP        1
 -----------------------------------------------
   NUMBER   CELLID                    RATE      
 -----------------------------------------------
     1      (1,1,1)               0.0000000     
 -----------------------------------------------




 GHB PACKAGE (GHB-1) FLOW RATES   PERIOD     10   STEP        1
 -----------------------------------------------
   NUMBER   CELLID                    RATE      
 -----------------------------------------------
     1      (5,1,1)              -1.95311477E-03
 -----------------------------------------------




 HEAD WILL BE SAVED ON UNIT 1018 AT END OF TIME STEP    1, STRESS PERIOD   10


  VOLUME BUDGET FOR ENTIRE MODEL AT END OF TIME STEP    1, STRESS PERIOD  10
  ---------------------------------------------------------------------------------------------------

     CUMULATIVE VOLUME      L**3       RATES FOR THIS TIME STEP      L**3/T          PACKAGE NAME    
     ------------------                 ------------------------                     ----------------

           IN:                                      IN:
           ---                                      ---
              STO-SS =           0.0000                STO-SS =           0.0000     STORAGE                          
                 WEL =           0.0000                   WEL =           0.0000     WEL-1                            
                 DRN =           0.0000                   DRN =           0.0000     SOF                              
                 GHB =           0.0000                   GHB =           0.0000     GHB-1                            
                 RCH =           0.1676                   RCH =       1.7130E-02     RCH-1                            

            TOTAL IN =           0.1676              TOTAL IN =       1.7130E-02

          OUT:                                     OUT:
          ----                                     ----
              STO-SS =           0.1569                STO-SS =       1.5177E-02     STORAGE                          
                 WEL =           0.0000                   WEL =           0.0000     WEL-1                            
                 DRN =           0.0000                   DRN =           0.0000     SOF                              
                 GHB =       1.0708E-02                   GHB =       1.9531E-03     GHB-1                            
                 RCH =           0.0000                   RCH =           0.0000     RCH-1                            

           TOTAL OUT =           0.1676             TOTAL OUT =       1.7130E-02

            IN - OUT =       9.7586E-13              IN - OUT =       1.7156E-14

 PERCENT DISCREPANCY =           0.00     PERCENT DISCREPANCY =           0.00




         TIME SUMMARY AT END OF TIME STEP    1 IN STRESS PERIOD   10
                    SECONDS     MINUTES      HOURS       DAYS        YEARS
                    -----------------------------------------------------------
   TIME STEP LENGTH  86400.      1440.0      24.000      1.0000     2.73785E-03
 STRESS PERIOD TIME  86400.      1440.0      24.000      1.0000     2.73785E-03
         TOTAL TIME 8.64000E+05  14400.      240.00      10.000     2.73785E-02


end timestep


start timestep kper="11" kstp="1" mode="normal"


 OUTPUT CONTROL FOR STRESS PERIOD 11 IS REPEATED USING SETTINGS FROM A PREVIOUS STRESS PERIOD.
 UBDSV1 SAVING           STO-SS ON UNIT   1019 AT TIME STEP      1, STRESS PERIOD     11
 UBDSV1 SAVING     FLOW-JA-FACE ON UNIT   1019 AT TIME STEP      1, STRESS PERIOD     11
 UBDSV06 SAVING         DATA-SAT IN MODEL MODEL            PACKAGE NPF             CONNECTED TO MODEL MODEL            PACKAGE NPF              ON UNIT   1019 AT TIME STEP      1, STRESS PERIOD     11
 UBDSV06 SAVING              DRN IN MODEL MODEL            PACKAGE MODEL           CONNECTED TO MODEL MODEL            PACKAGE SOF              ON UNIT   1019 AT TIME STEP      1, STRESS PERIOD     11
 UBDSV06 SAVING              GHB IN MODEL MODEL            PACKAGE MODEL           CONNECTED TO MODEL MODEL            PACKAGE GHB-1            ON UNIT   1019 AT TIME STEP      1, STRESS PERIOD     11

 DRN PACKAGE (SOF) FLOW RATES   PERIOD     11   STEP        1
 -----------------------------------------------
   NUMBER   CELLID                    RATE      
 -----------------------------------------------
     1      (1,1,1)               0.0000000     
 -----------------------------------------------




 GHB PACKAGE (GHB-1) FLOW RATES   PERIOD     11   STEP        1
 -----------------------------------------------
   NUMBER   CELLID                    RATE      
 -----------------------------------------------
     1      (5,1,1)              -2.14677820E-03
 -----------------------------------------------




 HEAD WILL BE SAVED ON UNIT 1018 AT END OF TIME STEP    1, STRESS PERIOD   11


  VOLUME BUDGET FOR ENTIRE MODEL AT END OF TIME STEP    1, STRESS PERIOD  11
  ---------------------------------------------------------------------------------------------------

     CUMULATIVE VOLUME      L**3       RATES FOR THIS TIME STEP      L**3/T          PACKAGE NAME    
     ------------------                 ------------------------                     ----------------

           IN:                                      IN:
           ---                                      ---
              STO-SS =           0.0000                STO-SS =           0.0000     STORAGE                          
                 WEL =           0.0000                   WEL =           0.0000     WEL-1                            
                 DRN =           0.0000                   DRN =           0.0000     SOF                              
                 GHB =           0.0000                   GHB =           0.0000     GHB-1                            
                 RCH =           0.1850                   RCH =       1.7337E-02     RCH-1                            

            TOTAL IN =           0.1850              TOTAL IN =       1.7337E-02

          OUT:                                     OUT:
          ----                                     ----
              STO-SS =           0.1721                STO-SS =       1.5191E-02     STORAGE                          
                 WEL =           0.0000                   WEL =           0.0000     WEL-1                            
                 DRN =           0.0000                   DRN =           0.0000     SOF                              
                 GHB =       1.2855E-02                   GHB =       2.1468E-03     GHB-1                            
                 RCH =           0.0000                   RCH =           0.0000     RCH-1                            

           TOTAL OUT =           0.1850             TOTAL OUT =       1.7337E-02

            IN - OUT =       1.0060E-12              IN - OUT =       3.0146E-14

 PERCENT DISCREPANCY =           0.00     PERCENT DISCREPANCY =           0.00




         TIME SUMMARY AT END OF TIME STEP    1 IN STRESS PERIOD   11
                    SECONDS     MINUTES      HOURS       DAYS        YEARS
                    -----------------------------------------------------------
   TIME STEP LENGTH  86400.      1440.0      24.000      1.0000     2.73785E-03
 STRESS PERIOD TIME  86400.      1440.0      24.000      1.0000     2.73785E-03
         TOTAL TIME 9.50400E+05  15840.      264.00      11.000     3.01164E-02


end timestep


start timestep kper="12" kstp="1" mode="normal"


 OUTPUT CONTROL FOR STRESS PERIOD 12 IS REPEATED USING SETTINGS FROM A PREVIOUS STRESS PERIOD.
 UBDSV1 SAVING           STO-SS ON UNIT   1019 AT TIME STEP      1, STRESS PERIOD     12
 UBDSV1 SAVING     FLOW-JA-FACE ON UNIT   1019 AT TIME STEP      1, STRESS PERIOD     12
 UBDSV06 SAVING         DATA-SAT IN MODEL MODEL            PACKAGE NPF             CONNECTED TO MODEL MODEL            PACKAGE NPF              ON UNIT   1019 AT TIME STEP      1, STRESS PERIOD     12
 UBDSV06 SAVING              DRN IN MODEL MODEL            PACKAGE MODEL           CONNECTED TO MODEL MODEL            PACKAGE SOF              ON UNIT   1019 AT TIME STEP      1, STRESS PERIOD     12
 UBDSV06 SAVING              GHB IN MODEL MODEL            PACKAGE MODEL           CONNECTED TO MODEL MODEL            PACKAGE GHB-1            ON UNIT   1019 AT TIME STEP      1, STRESS PERIOD     12

 DRN PACKAGE (SOF) FLOW RATES   PERIOD     12   STEP        1
 -----------------------------------------------
   NUMBER   CELLID                    RATE      
 -----------------------------------------------
     1      (1,1,1)               0.0000000     
 -----------------------------------------------




 GHB PACKAGE (GHB-1) FLOW RATES   PERIOD     12   STEP        1
 -----------------------------------------------
   NUMBER   CELLID                    RATE      
 -----------------------------------------------
     1      (5,1,1)              -2.34187407E-03
 -----------------------------------------------




 HEAD WILL BE SAVED ON UNIT 1018 AT END OF TIME STEP    1, STRESS PERIOD   12


  VOLUME BUDGET FOR ENTIRE MODEL AT END OF TIME STEP    1, STRESS PERIOD  12
  ---------------------------------------------------------------------------------------------------

     CUMULATIVE VOLUME      L**3       RATES FOR THIS TIME STEP      L**3/T          PACKAGE NAME    
     ------------------                 ------------------------                     ----------------

           IN:                                      IN:
           ---                                      ---
              STO-SS =           0.0000                STO-SS =           0.0000     STORAGE                          
                 WEL =           0.0000                   WEL =           0.0000     WEL-1                            
                 DRN =           0.0000                   DRN =           0.0000     SOF                              
                 GHB =           0.0000                   GHB =           0.0000     GHB-1                            
                 RCH =           0.2026                   RCH =       1.7603E-02     RCH-1                            

            TOTAL IN =           0.2026              TOTAL IN =       1.7603E-02

          OUT:                                     OUT:
          ----                                     ----
              STO-SS =           0.1874                STO-SS =       1.5261E-02     STORAGE                          
                 WEL =           0.0000                   WEL =           0.0000     WEL-1                            
                 DRN =           0.0000                   DRN =           0.0000     SOF                              
                 GHB =       1.5197E-02                   GHB =       2.3419E-03     GHB-1                            
                 RCH =           0.0000                   RCH =           0.0000     RCH-1                            

           TOTAL OUT =           0.2026             TOTAL OUT =       1.7603E-02

            IN - OUT =       1.0247E-12              IN - OUT =       1.8711E-14

 PERCENT DISCREPANCY =           0.00     PERCENT DISCREPANCY =           0.00




         TIME SUMMARY AT END OF TIME STEP    1 IN STRESS PERIOD   12
                    SECONDS     MINUTES      HOURS       DAYS        YEARS
                    -----------------------------------------------------------
   TIME STEP LENGTH  86400.      1440.0      24.000      1.0000     2.73785E-03
 STRESS PERIOD TIME  86400.      1440.0      24.000      1.0000     2.73785E-03
         TOTAL TIME 1.03680E+06  17280.      288.00      12.000     3.28542E-02


end timestep


start timestep kper="13" kstp="1" mode="normal"


 OUTPUT CONTROL FOR STRESS PERIOD 13 IS REPEATED USING SETTINGS FROM A PREVIOUS STRESS PERIOD.
 UBDSV1 SAVING           STO-SS ON UNIT   1019 AT TIME STEP      1, STRESS PERIOD     13
 UBDSV1 SAVING     FLOW-JA-FACE ON UNIT   1019 AT TIME STEP      1, STRESS PERIOD     13
 UBDSV06 SAVING         DATA-SAT IN MODEL MODEL            PACKAGE NPF             CONNECTED TO MODEL MODEL            PACKAGE NPF              ON UNIT   1019 AT TIME STEP      1, STRESS PERIOD     13
 UBDSV06 SAVING              DRN IN MODEL MODEL            PACKAGE MODEL           CONNECTED TO MODEL MODEL            PACKAGE SOF              ON UNIT   1019 AT TIME STEP      1, STRESS PERIOD     13
 UBDSV06 SAVING              GHB IN MODEL MODEL            PACKAGE MODEL           CONNECTED TO MODEL MODEL            PACKAGE GHB-1            ON UNIT   1019 AT TIME STEP      1, STRESS PERIOD     13

 DRN PACKAGE (SOF) FLOW RATES   PERIOD     13   STEP        1
 -----------------------------------------------
   NUMBER   CELLID                    RATE      
 -----------------------------------------------
     1      (1,1,1)               0.0000000     
 -----------------------------------------------




 GHB PACKAGE (GHB-1) FLOW RATES   PERIOD     13   STEP        1
 -----------------------------------------------
   NUMBER   CELLID                    RATE      
 -----------------------------------------------
     1      (5,1,1)              -2.54035928E-03
 -----------------------------------------------




 HEAD WILL BE SAVED ON UNIT 1018 AT END OF TIME STEP    1, STRESS PERIOD   13


  VOLUME BUDGET FOR ENTIRE MODEL AT END OF TIME STEP    1, STRESS PERIOD  13
  ---------------------------------------------------------------------------------------------------

     CUMULATIVE VOLUME      L**3       RATES FOR THIS TIME STEP      L**3/T          PACKAGE NAME    
     ------------------                 ------------------------                     ----------------

           IN:                                      IN:
           ---                                      ---
              STO-SS =           0.0000                STO-SS =           0.0000     STORAGE                          
                 WEL =           0.0000                   WEL =           0.0000     WEL-1                            
                 DRN =           0.0000                   DRN =           0.0000     SOF                              
                 GHB =           0.0000                   GHB =           0.0000     GHB-1                            
                 RCH =           0.2205                   RCH =       1.7938E-02     RCH-1                            

            TOTAL IN =           0.2205              TOTAL IN =       1.7938E-02

          OUT:                                     OUT:
          ----                                     ----
              STO-SS =           0.2028                STO-SS =       1.5398E-02     STORAGE                          
                 WEL =           0.0000                   WEL =           0.0000     WEL-1                            
                 DRN =           0.0000                   DRN =           0.0000     SOF                              
                 GHB =       1.7737E-02                   GHB =       2.5404E-03     GHB-1                            
                 RCH =           0.0000                   RCH =           0.0000     RCH-1                            

           TOTAL OUT =           0.2205             TOTAL OUT =       1.7938E-02

            IN - OUT =       1.0530E-12              IN - OUT =       2.8314E-14

 PERCENT DISCREPANCY =           0.00     PERCENT DISCREPANCY =           0.00




         TIME SUMMARY AT END OF TIME STEP    1 IN STRESS PERIOD   13
                    SECONDS     MINUTES      HOURS       DAYS        YEARS
                    -----------------------------------------------------------
   TIME STEP LENGTH  86400.      1440.0      24.000      1.0000     2.73785E-03
 STRESS PERIOD TIME  86400.      1440.0      24.000      1.0000     2.73785E-03
         TOTAL TIME 1.12320E+06  18720.      312.00      13.000     3.55921E-02


end timestep


start timestep kper="14" kstp="1" mode="normal"


 OUTPUT CONTROL FOR STRESS PERIOD 14 IS REPEATED USING SETTINGS FROM A PREVIOUS STRESS PERIOD.
 UBDSV1 SAVING           STO-SS ON UNIT   1019 AT TIME STEP      1, STRESS PERIOD     14
 UBDSV1 SAVING     FLOW-JA-FACE ON UNIT   1019 AT TIME STEP      1, STRESS PERIOD     14
 UBDSV06 SAVING         DATA-SAT IN MODEL MODEL            PACKAGE NPF             CONNECTED TO MODEL MODEL            PACKAGE NPF              ON UNIT   1019 AT TIME STEP      1, STRESS PERIOD     14
 UBDSV06 SAVING              DRN IN MODEL MODEL            PACKAGE MODEL           CONNECTED TO MODEL MODEL            PACKAGE SOF              ON UNIT   1019 AT TIME STEP      1, STRESS PERIOD     14
 UBDSV06 SAVING              GHB IN MODEL MODEL            PACKAGE MODEL           CONNECTED TO MODEL MODEL            PACKAGE GHB-1            ON UNIT   1019 AT TIME STEP      1, STRESS PERIOD     14

 DRN PACKAGE (SOF) FLOW RATES   PERIOD     14   STEP        1
 -----------------------------------------------
   NUMBER   CELLID                    RATE      
 -----------------------------------------------
     1      (1,1,1)               0.0000000     
 -----------------------------------------------




 GHB PACKAGE (GHB-1) FLOW RATES   PERIOD     14   STEP        1
 -----------------------------------------------
   NUMBER   CELLID                    RATE      
 -----------------------------------------------
     1      (5,1,1)              -2.74361240E-03
 -----------------------------------------------




 HEAD WILL BE SAVED ON UNIT 1018 AT END OF TIME STEP    1, STRESS PERIOD   14


  VOLUME BUDGET FOR ENTIRE MODEL AT END OF TIME STEP    1, STRESS PERIOD  14
  ---------------------------------------------------------------------------------------------------

     CUMULATIVE VOLUME      L**3       RATES FOR THIS TIME STEP      L**3/T          PACKAGE NAME    
     ------------------                 ------------------------                     ----------------

           IN:                                      IN:
           ---                                      ---
              STO-SS =           0.0000                STO-SS =           0.0000     STORAGE                          
                 WEL =           0.0000                   WEL =           0.0000     WEL-1                            
                 DRN =           0.0000                   DRN =           0.0000     SOF                              
                 GHB =           0.0000                   GHB =           0.0000     GHB-1                            
                 RCH =           0.2389                   RCH =       1.8349E-02     RCH-1                            

            TOTAL IN =           0.2389              TOTAL IN =       1.8349E-02

          OUT:                                     OUT:
          ----                                     ----
              STO-SS =           0.2184                STO-SS =       1.5606E-02     STORAGE                          
                 WEL =           0.0000                   WEL =           0.0000     WEL-1                            
                 DRN =           0.0000                   DRN =           0.0000     SOF                              
                 GHB =       2.0481E-02                   GHB =       2.7436E-03     GHB-1                            
                 RCH =           0.0000                   RCH =           0.0000     RCH-1                            

           TOTAL OUT =           0.2389             TOTAL OUT =       1.8349E-02

            IN - OUT =       1.0708E-12              IN - OUT =       1.7823E-14

 PERCENT DISCREPANCY =           0.00     PERCENT DISCREPANCY =           0.00




         TIME SUMMARY AT END OF TIME STEP    1 IN STRESS PERIOD   14
                    SECONDS     MINUTES      HOURS       DAYS        YEARS
                    -----------------------------------------------------------
   TIME STEP LENGTH  86400.      1440.0      24.000      1.0000     2.73785E-03
 STRESS PERIOD TIME  86400.      1440.0      24.000      1.0000     2.73785E-03
         TOTAL TIME 1.20960E+06  20160.      336.00      14.000     3.83299E-02


end timestep


start timestep kper="15" kstp="1" mode="normal"


 OUTPUT CONTROL FOR STRESS PERIOD 15 IS REPEATED USING SETTINGS FROM A PREVIOUS STRESS PERIOD.
 UBDSV1 SAVING           STO-SS ON UNIT   1019 AT TIME STEP      1, STRESS PERIOD     15
 UBDSV1 SAVING     FLOW-JA-FACE ON UNIT   1019 AT TIME STEP      1, STRESS PERIOD     15
 UBDSV06 SAVING         DATA-SAT IN MODEL MODEL            PACKAGE NPF             CONNECTED TO MODEL MODEL            PACKAGE NPF              ON UNIT   1019 AT TIME STEP      1, STRESS PERIOD     15
 UBDSV06 SAVING              DRN IN MODEL MODEL            PACKAGE MODEL           CONNECTED TO MODEL MODEL            PACKAGE SOF              ON UNIT   1019 AT TIME STEP      1, STRESS PERIOD     15
 UBDSV06 SAVING              GHB IN MODEL MODEL            PACKAGE MODEL           CONNECTED TO MODEL MODEL            PACKAGE GHB-1            ON UNIT   1019 AT TIME STEP      1, STRESS PERIOD     15

 DRN PACKAGE (SOF) FLOW RATES   PERIOD     15   STEP        1
 -----------------------------------------------
   NUMBER   CELLID                    RATE      
 -----------------------------------------------
     1      (1,1,1)               0.0000000     
 -----------------------------------------------




 GHB PACKAGE (GHB-1) FLOW RATES   PERIOD     15   STEP        1
 -----------------------------------------------
   NUMBER   CELLID                    RATE      
 -----------------------------------------------
     1      (5,1,1)              -2.95233419E-03
 -----------------------------------------------




 HEAD WILL BE SAVED ON UNIT 1018 AT END OF TIME STEP    1, STRESS PERIOD   15


  VOLUME BUDGET FOR ENTIRE MODEL AT END OF TIME STEP    1, STRESS PERIOD  15
  ---------------------------------------------------------------------------------------------------

     CUMULATIVE VOLUME      L**3       RATES FOR THIS TIME STEP      L**3/T          PACKAGE NAME    
     ------------------                 ------------------------                     ----------------

           IN:                                      IN:
           ---                                      ---
              STO-SS =           0.0000                STO-SS =           0.0000     STORAGE                          
                 WEL =           0.0000                   WEL =           0.0000     WEL-1                            
                 DRN =           0.0000                   DRN =           0.0000     SOF                              
                 GHB =           0.0000                   GHB =           0.0000     GHB-1                            
                 RCH =           0.2577                   RCH =       1.8868E-02     RCH-1                            

            TOTAL IN =           0.2577              TOTAL IN =       1.8868E-02

          OUT:                                     OUT:
          ----                                     ----
              STO-SS =           0.2343                STO-SS =       1.5916E-02     STORAGE                          
                 WEL =           0.0000                   WEL =           0.0000     WEL-1                            
                 DRN =           0.0000                   DRN =           0.0000     SOF                              
                 GHB =       2.3433E-02                   GHB =       2.9523E-03     GHB-1                            
                 RCH =           0.0000                   RCH =           0.0000     RCH-1                            

           TOTAL OUT =           0.2577             TOTAL OUT =       1.8868E-02

            IN - OUT =       1.0971E-12              IN - OUT =       2.6260E-14

 PERCENT DISCREPANCY =           0.00     PERCENT DISCREPANCY =           0.00




         TIME SUMMARY AT END OF TIME STEP    1 IN STRESS PERIOD   15
                    SECONDS     MINUTES      HOURS       DAYS        YEARS
                    -----------------------------------------------------------
   TIME STEP LENGTH  86400.      1440.0      24.000      1.0000     2.73785E-03
 STRESS PERIOD TIME  86400.      1440.0      24.000      1.0000     2.73785E-03
         TOTAL TIME 1.29600E+06  21600.      360.00      15.000     4.10678E-02


end timestep


start timestep kper="16" kstp="1" mode="normal"


 OUTPUT CONTROL FOR STRESS PERIOD 16 IS REPEATED USING SETTINGS FROM A PREVIOUS STRESS PERIOD.
 UBDSV1 SAVING           STO-SS ON UNIT   1019 AT TIME STEP      1, STRESS PERIOD     16
 UBDSV1 SAVING     FLOW-JA-FACE ON UNIT   1019 AT TIME STEP      1, STRESS PERIOD     16
 UBDSV06 SAVING         DATA-SAT IN MODEL MODEL            PACKAGE NPF             CONNECTED TO MODEL MODEL            PACKAGE NPF              ON UNIT   1019 AT TIME STEP      1, STRESS PERIOD     16
 UBDSV06 SAVING              DRN IN MODEL MODEL            PACKAGE MODEL           CONNECTED TO MODEL MODEL            PACKAGE SOF              ON UNIT   1019 AT TIME STEP      1, STRESS PERIOD     16
 UBDSV06 SAVING              GHB IN MODEL MODEL            PACKAGE MODEL           CONNECTED TO MODEL MODEL            PACKAGE GHB-1            ON UNIT   1019 AT TIME STEP      1, STRESS PERIOD     16

 DRN PACKAGE (SOF) FLOW RATES   PERIOD     16   STEP        1
 -----------------------------------------------
   NUMBER   CELLID                    RATE      
 -----------------------------------------------
     1      (1,1,1)               0.0000000     
 -----------------------------------------------




 GHB PACKAGE (GHB-1) FLOW RATES   PERIOD     16   STEP        1
 -----------------------------------------------
   NUMBER   CELLID                    RATE      
 -----------------------------------------------
     1      (5,1,1)              -3.16765722E-03
 -----------------------------------------------




 HEAD WILL BE SAVED ON UNIT 1018 AT END OF TIME STEP    1, STRESS PERIOD   16


  VOLUME BUDGET FOR ENTIRE MODEL AT END OF TIME STEP    1, STRESS PERIOD  16
  ---------------------------------------------------------------------------------------------------

     CUMULATIVE VOLUME      L**3       RATES FOR THIS TIME STEP      L**3/T          PACKAGE NAME    
     ------------------                 ------------------------                     ----------------

           IN:                                      IN:
           ---                                      ---
              STO-SS =           0.0000                STO-SS =           0.0000     STORAGE                          
                 WEL =           0.0000                   WEL =           0.0000     WEL-1                            
                 DRN =           0.0000                   DRN =           0.0000     SOF                              
                 GHB =           0.0000                   GHB =           0.0000     GHB-1                            
                 RCH =           0.2773                   RCH =       1.9517E-02     RCH-1                            

            TOTAL IN =           0.2773              TOTAL IN =       1.9517E-02

          OUT:                                     OUT:
          ----                                     ----
              STO-SS =           0.2507                STO-SS =       1.6349E-02     STORAGE                          
                 WEL =           0.0000                   WEL =           0.0000     WEL-1                            
                 DRN =           0.0000                   DRN =           0.0000     SOF                              
                 GHB =       2.6601E-02                   GHB =       3.1677E-03     GHB-1                            
                 RCH =           0.0000                   RCH =           0.0000     RCH-1                            

           TOTAL OUT =           0.2773             TOTAL OUT =       1.9517E-02

            IN - OUT =       1.1146E-12              IN - OUT =       1.7434E-14

 PERCENT DISCREPANCY =           0.00     PERCENT DISCREPANCY =           0.00




         TIME SUMMARY AT END OF TIME STEP    1 IN STRESS PERIOD   16
                    SECONDS     MINUTES      HOURS       DAYS        YEARS
                    -----------------------------------------------------------
   TIME STEP LENGTH  86400.      1440.0      24.000      1.0000     2.73785E-03
 STRESS PERIOD TIME  86400.      1440.0      24.000      1.0000     2.73785E-03
         TOTAL TIME 1.38240E+06  23040.      384.00      16.000     4.38056E-02


end timestep


start timestep kper="17" kstp="1" mode="normal"


 OUTPUT CONTROL FOR STRESS PERIOD 17 IS REPEATED USING SETTINGS FROM A PREVIOUS STRESS PERIOD.
 UBDSV1 SAVING           STO-SS ON UNIT   1019 AT TIME STEP      1, STRESS PERIOD     17
 UBDSV1 SAVING     FLOW-JA-FACE ON UNIT   1019 AT TIME STEP      1, STRESS PERIOD     17
 UBDSV06 SAVING         DATA-SAT IN MODEL MODEL            PACKAGE NPF             CONNECTED TO MODEL MODEL            PACKAGE NPF              ON UNIT   1019 AT TIME STEP      1, STRESS PERIOD     17
 UBDSV06 SAVING              DRN IN MODEL MODEL            PACKAGE MODEL           CONNECTED TO MODEL MODEL            PACKAGE SOF              ON UNIT   1019 AT TIME STEP      1, STRESS PERIOD     17
 UBDSV06 SAVING              GHB IN MODEL MODEL            PACKAGE MODEL           CONNECTED TO MODEL MODEL            PACKAGE GHB-1            ON UNIT   1019 AT TIME STEP      1, STRESS PERIOD     17

 DRN PACKAGE (SOF) FLOW RATES   PERIOD     17   STEP        1
 -----------------------------------------------
   NUMBER   CELLID                    RATE      
 -----------------------------------------------
     1      (1,1,1)               0.0000000     
 -----------------------------------------------




 GHB PACKAGE (GHB-1) FLOW RATES   PERIOD     17   STEP        1
 -----------------------------------------------
   NUMBER   CELLID                    RATE      
 -----------------------------------------------
     1      (5,1,1)              -3.39143667E-03
 -----------------------------------------------




 HEAD WILL BE SAVED ON UNIT 1018 AT END OF TIME STEP    1, STRESS PERIOD   17


  VOLUME BUDGET FOR ENTIRE MODEL AT END OF TIME STEP    1, STRESS PERIOD  17
  ---------------------------------------------------------------------------------------------------

     CUMULATIVE VOLUME      L**3       RATES FOR THIS TIME STEP      L**3/T          PACKAGE NAME    
     ------------------                 ------------------------                     ----------------

           IN:                                      IN:
           ---                                      ---
              STO-SS =           0.0000                STO-SS =           0.0000     STORAGE                          
                 WEL =           0.0000                   WEL =           0.0000     WEL-1                            
                 DRN =           0.0000                   DRN =           0.0000     SOF                              
                 GHB =           0.0000                   GHB =           0.0000     GHB-1                            
                 RCH =           0.2976                   RCH =       2.0305E-02     RCH-1                            

            TOTAL IN =           0.2976              TOTAL IN =       2.0305E-02

          OUT:                                     OUT:
          ----                                     ----
              STO-SS =           0.2676                STO-SS =       1.6913E-02     STORAGE                          
                 WEL =           0.0000                   WEL =           0.0000     WEL-1                            
                 DRN =           0.0000                   DRN =           0.0000     SOF                              
                 GHB =       2.9992E-02                   GHB =       3.3914E-03     GHB-1                            
                 RCH =           0.0000                   RCH =           0.0000     RCH-1                            

           TOTAL OUT =           0.2976             TOTAL OUT =       2.0305E-02

[...]




 GHB PACKAGE (GHB-1) FLOW RATES   PERIOD    116   STEP        1
 -----------------------------------------------
   NUMBER   CELLID                    RATE      
 -----------------------------------------------
     1      (5,1,1)              -0.27911657    
 -----------------------------------------------




 HEAD WILL BE SAVED ON UNIT 1018 AT END OF TIME STEP    1, STRESS PERIOD  116


  VOLUME BUDGET FOR ENTIRE MODEL AT END OF TIME STEP    1, STRESS PERIOD 116
  ---------------------------------------------------------------------------------------------------

     CUMULATIVE VOLUME      L**3       RATES FOR THIS TIME STEP      L**3/T          PACKAGE NAME    
     ------------------                 ------------------------                     ----------------

           IN:                                      IN:
           ---                                      ---
              STO-SS =           0.0000                STO-SS =           0.0000     STORAGE                          
                 WEL =           0.0000                   WEL =           0.0000     WEL-1                            
                 DRN =           0.0000                   DRN =           0.0000     SOF                              
                 GHB =           0.0000                   GHB =           0.0000     GHB-1                            
                 RCH =          27.0225                   RCH =           0.3600     RCH-1                            

            TOTAL IN =          27.0225              TOTAL IN =           0.3600

          OUT:                                     OUT:
          ----                                     ----
              STO-SS =           8.6601                STO-SS =       8.0883E-02     STORAGE                          
                 WEL =           0.0000                   WEL =           0.0000     WEL-1                            
                 DRN =           0.0000                   DRN =           0.0000     SOF                              
                 GHB =          18.3624                   GHB =           0.2791     GHB-1                            
                 RCH =           0.0000                   RCH =           0.0000     RCH-1                            

           TOTAL OUT =          27.0225             TOTAL OUT =           0.3600

            IN - OUT =       2.8501E-09              IN - OUT =       3.3307E-15

 PERCENT DISCREPANCY =           0.00     PERCENT DISCREPANCY =           0.00




         TIME SUMMARY AT END OF TIME STEP    1 IN STRESS PERIOD  116
                    SECONDS     MINUTES      HOURS       DAYS        YEARS
                    -----------------------------------------------------------
   TIME STEP LENGTH  86400.      1440.0      24.000      1.0000     2.73785E-03
 STRESS PERIOD TIME  86400.      1440.0      24.000      1.0000     2.73785E-03
         TOTAL TIME 1.00224E+07 1.67040E+05  2784.0      116.00     0.31759    


end timestep


start timestep kper="117" kstp="1" mode="normal"


 OUTPUT CONTROL FOR STRESS PERIOD 117 IS REPEATED USING SETTINGS FROM A PREVIOUS STRESS PERIOD.
 UBDSV1 SAVING           STO-SS ON UNIT   1019 AT TIME STEP      1, STRESS PERIOD    117
 UBDSV1 SAVING     FLOW-JA-FACE ON UNIT   1019 AT TIME STEP      1, STRESS PERIOD    117
 UBDSV06 SAVING         DATA-SAT IN MODEL MODEL            PACKAGE NPF             CONNECTED TO MODEL MODEL            PACKAGE NPF              ON UNIT   1019 AT TIME STEP      1, STRESS PERIOD    117
 UBDSV06 SAVING              DRN IN MODEL MODEL            PACKAGE MODEL           CONNECTED TO MODEL MODEL            PACKAGE SOF              ON UNIT   1019 AT TIME STEP      1, STRESS PERIOD    117
 UBDSV06 SAVING              GHB IN MODEL MODEL            PACKAGE MODEL           CONNECTED TO MODEL MODEL            PACKAGE GHB-1            ON UNIT   1019 AT TIME STEP      1, STRESS PERIOD    117

 DRN PACKAGE (SOF) FLOW RATES   PERIOD    117   STEP        1
 -----------------------------------------------
   NUMBER   CELLID                    RATE      
 -----------------------------------------------
     1      (1,1,1)               0.0000000     
 -----------------------------------------------




 GHB PACKAGE (GHB-1) FLOW RATES   PERIOD    117   STEP        1
 -----------------------------------------------
   NUMBER   CELLID                    RATE      
 -----------------------------------------------
     1      (5,1,1)              -0.27919078    
 -----------------------------------------------




 HEAD WILL BE SAVED ON UNIT 1018 AT END OF TIME STEP    1, STRESS PERIOD  117


  VOLUME BUDGET FOR ENTIRE MODEL AT END OF TIME STEP    1, STRESS PERIOD 117
  ---------------------------------------------------------------------------------------------------

     CUMULATIVE VOLUME      L**3       RATES FOR THIS TIME STEP      L**3/T          PACKAGE NAME    
     ------------------                 ------------------------                     ----------------

           IN:                                      IN:
           ---                                      ---
              STO-SS =           0.0000                STO-SS =           0.0000     STORAGE                          
                 WEL =           0.0000                   WEL =           0.0000     WEL-1                            
                 DRN =           0.0000                   DRN =           0.0000     SOF                              
                 GHB =           0.0000                   GHB =           0.0000     GHB-1                            
                 RCH =          27.3825                   RCH =           0.3600     RCH-1                            

            TOTAL IN =          27.3825              TOTAL IN =           0.3600

          OUT:                                     OUT:
          ----                                     ----
              STO-SS =           8.7409                STO-SS =       8.0809E-02     STORAGE                          
                 WEL =           0.0000                   WEL =           0.0000     WEL-1                            
                 DRN =           0.0000                   DRN =           0.0000     SOF                              
                 GHB =          18.6416                   GHB =           0.2792     GHB-1                            
                 RCH =           0.0000                   RCH =           0.0000     RCH-1                            

           TOTAL OUT =          27.3825             TOTAL OUT =           0.3600

            IN - OUT =       2.8501E-09              IN - OUT =       3.3307E-15

 PERCENT DISCREPANCY =           0.00     PERCENT DISCREPANCY =           0.00




         TIME SUMMARY AT END OF TIME STEP    1 IN STRESS PERIOD  117
                    SECONDS     MINUTES      HOURS       DAYS        YEARS
                    -----------------------------------------------------------
   TIME STEP LENGTH  86400.      1440.0      24.000      1.0000     2.73785E-03
 STRESS PERIOD TIME  86400.      1440.0      24.000      1.0000     2.73785E-03
         TOTAL TIME 1.01088E+07 1.68480E+05  2808.0      117.00     0.32033    


end timestep


start timestep kper="118" kstp="1" mode="normal"


 OUTPUT CONTROL FOR STRESS PERIOD 118 IS REPEATED USING SETTINGS FROM A PREVIOUS STRESS PERIOD.
 UBDSV1 SAVING           STO-SS ON UNIT   1019 AT TIME STEP      1, STRESS PERIOD    118
 UBDSV1 SAVING     FLOW-JA-FACE ON UNIT   1019 AT TIME STEP      1, STRESS PERIOD    118
 UBDSV06 SAVING         DATA-SAT IN MODEL MODEL            PACKAGE NPF             CONNECTED TO MODEL MODEL            PACKAGE NPF              ON UNIT   1019 AT TIME STEP      1, STRESS PERIOD    118
 UBDSV06 SAVING              DRN IN MODEL MODEL            PACKAGE MODEL           CONNECTED TO MODEL MODEL            PACKAGE SOF              ON UNIT   1019 AT TIME STEP      1, STRESS PERIOD    118
 UBDSV06 SAVING              GHB IN MODEL MODEL            PACKAGE MODEL           CONNECTED TO MODEL MODEL            PACKAGE GHB-1            ON UNIT   1019 AT TIME STEP      1, STRESS PERIOD    118

 DRN PACKAGE (SOF) FLOW RATES   PERIOD    118   STEP        1
 -----------------------------------------------
   NUMBER   CELLID                    RATE      
 -----------------------------------------------
     1      (1,1,1)               0.0000000     
 -----------------------------------------------




 GHB PACKAGE (GHB-1) FLOW RATES   PERIOD    118   STEP        1
 -----------------------------------------------
   NUMBER   CELLID                    RATE      
 -----------------------------------------------
     1      (5,1,1)              -0.27926493    
 -----------------------------------------------




 HEAD WILL BE SAVED ON UNIT 1018 AT END OF TIME STEP    1, STRESS PERIOD  118


  VOLUME BUDGET FOR ENTIRE MODEL AT END OF TIME STEP    1, STRESS PERIOD 118
  ---------------------------------------------------------------------------------------------------

     CUMULATIVE VOLUME      L**3       RATES FOR THIS TIME STEP      L**3/T          PACKAGE NAME    
     ------------------                 ------------------------                     ----------------

           IN:                                      IN:
           ---                                      ---
              STO-SS =           0.0000                STO-SS =           0.0000     STORAGE                          
                 WEL =           0.0000                   WEL =           0.0000     WEL-1                            
                 DRN =           0.0000                   DRN =           0.0000     SOF                              
                 GHB =           0.0000                   GHB =           0.0000     GHB-1                            
                 RCH =          27.7425                   RCH =           0.3600     RCH-1                            

            TOTAL IN =          27.7425              TOTAL IN =           0.3600

          OUT:                                     OUT:
          ----                                     ----
              STO-SS =           8.8217                STO-SS =       8.0735E-02     STORAGE                          
                 WEL =           0.0000                   WEL =           0.0000     WEL-1                            
                 DRN =           0.0000                   DRN =           0.0000     SOF                              
                 GHB =          18.9208                   GHB =           0.2793     GHB-1                            
                 RCH =           0.0000                   RCH =           0.0000     RCH-1                            

           TOTAL OUT =          27.7425             TOTAL OUT =           0.3600

            IN - OUT =       2.8501E-09              IN - OUT =       3.2752E-15

 PERCENT DISCREPANCY =           0.00     PERCENT DISCREPANCY =           0.00




         TIME SUMMARY AT END OF TIME STEP    1 IN STRESS PERIOD  118
                    SECONDS     MINUTES      HOURS       DAYS        YEARS
                    -----------------------------------------------------------
   TIME STEP LENGTH  86400.      1440.0      24.000      1.0000     2.73785E-03
 STRESS PERIOD TIME  86400.      1440.0      24.000      1.0000     2.73785E-03
         TOTAL TIME 1.01952E+07 1.69920E+05  2832.0      118.00     0.32307    


end timestep


start timestep kper="119" kstp="1" mode="normal"


 OUTPUT CONTROL FOR STRESS PERIOD 119 IS REPEATED USING SETTINGS FROM A PREVIOUS STRESS PERIOD.
 UBDSV1 SAVING           STO-SS ON UNIT   1019 AT TIME STEP      1, STRESS PERIOD    119
 UBDSV1 SAVING     FLOW-JA-FACE ON UNIT   1019 AT TIME STEP      1, STRESS PERIOD    119
 UBDSV06 SAVING         DATA-SAT IN MODEL MODEL            PACKAGE NPF             CONNECTED TO MODEL MODEL            PACKAGE NPF              ON UNIT   1019 AT TIME STEP      1, STRESS PERIOD    119
 UBDSV06 SAVING              DRN IN MODEL MODEL            PACKAGE MODEL           CONNECTED TO MODEL MODEL            PACKAGE SOF              ON UNIT   1019 AT TIME STEP      1, STRESS PERIOD    119
 UBDSV06 SAVING              GHB IN MODEL MODEL            PACKAGE MODEL           CONNECTED TO MODEL MODEL            PACKAGE GHB-1            ON UNIT   1019 AT TIME STEP      1, STRESS PERIOD    119

 DRN PACKAGE (SOF) FLOW RATES   PERIOD    119   STEP        1
 -----------------------------------------------
   NUMBER   CELLID                    RATE      
 -----------------------------------------------
     1      (1,1,1)               0.0000000     
 -----------------------------------------------




 GHB PACKAGE (GHB-1) FLOW RATES   PERIOD    119   STEP        1
 -----------------------------------------------
   NUMBER   CELLID                    RATE      
 -----------------------------------------------
     1      (5,1,1)              -0.27933900    
 -----------------------------------------------




 HEAD WILL BE SAVED ON UNIT 1018 AT END OF TIME STEP    1, STRESS PERIOD  119


  VOLUME BUDGET FOR ENTIRE MODEL AT END OF TIME STEP    1, STRESS PERIOD 119
  ---------------------------------------------------------------------------------------------------

     CUMULATIVE VOLUME      L**3       RATES FOR THIS TIME STEP      L**3/T          PACKAGE NAME    
     ------------------                 ------------------------                     ----------------

           IN:                                      IN:
           ---                                      ---
              STO-SS =           0.0000                STO-SS =           0.0000     STORAGE                          
                 WEL =           0.0000                   WEL =           0.0000     WEL-1                            
                 DRN =           0.0000                   DRN =           0.0000     SOF                              
                 GHB =           0.0000                   GHB =           0.0000     GHB-1                            
                 RCH =          28.1025                   RCH =           0.3600     RCH-1                            

            TOTAL IN =          28.1025              TOTAL IN =           0.3600

          OUT:                                     OUT:
          ----                                     ----
              STO-SS =           8.9023                STO-SS =       8.0661E-02     STORAGE                          
                 WEL =           0.0000                   WEL =           0.0000     WEL-1                            
                 DRN =           0.0000                   DRN =           0.0000     SOF                              
                 GHB =          19.2002                   GHB =           0.2793     GHB-1                            
                 RCH =           0.0000                   RCH =           0.0000     RCH-1                            

           TOTAL OUT =          28.1025             TOTAL OUT =           0.3600

            IN - OUT =       2.8501E-09              IN - OUT =       3.0531E-15

 PERCENT DISCREPANCY =           0.00     PERCENT DISCREPANCY =           0.00




         TIME SUMMARY AT END OF TIME STEP    1 IN STRESS PERIOD  119
                    SECONDS     MINUTES      HOURS       DAYS        YEARS
                    -----------------------------------------------------------
   TIME STEP LENGTH  86400.      1440.0      24.000      1.0000     2.73785E-03
 STRESS PERIOD TIME  86400.      1440.0      24.000      1.0000     2.73785E-03
         TOTAL TIME 1.02816E+07 1.71360E+05  2856.0      119.00     0.32580    


end timestep


start timestep kper="120" kstp="1" mode="normal"


 OUTPUT CONTROL FOR STRESS PERIOD 120 IS REPEATED USING SETTINGS FROM A PREVIOUS STRESS PERIOD.
 UBDSV1 SAVING           STO-SS ON UNIT   1019 AT TIME STEP      1, STRESS PERIOD    120
 UBDSV1 SAVING     FLOW-JA-FACE ON UNIT   1019 AT TIME STEP      1, STRESS PERIOD    120
 UBDSV06 SAVING         DATA-SAT IN MODEL MODEL            PACKAGE NPF             CONNECTED TO MODEL MODEL            PACKAGE NPF              ON UNIT   1019 AT TIME STEP      1, STRESS PERIOD    120
 UBDSV06 SAVING              DRN IN MODEL MODEL            PACKAGE MODEL           CONNECTED TO MODEL MODEL            PACKAGE SOF              ON UNIT   1019 AT TIME STEP      1, STRESS PERIOD    120
 UBDSV06 SAVING              GHB IN MODEL MODEL            PACKAGE MODEL           CONNECTED TO MODEL MODEL            PACKAGE GHB-1            ON UNIT   1019 AT TIME STEP      1, STRESS PERIOD    120

 DRN PACKAGE (SOF) FLOW RATES   PERIOD    120   STEP        1
 -----------------------------------------------
   NUMBER   CELLID                    RATE      
 -----------------------------------------------
     1      (1,1,1)               0.0000000     
 -----------------------------------------------




 GHB PACKAGE (GHB-1) FLOW RATES   PERIOD    120   STEP        1
 -----------------------------------------------
   NUMBER   CELLID                    RATE      
 -----------------------------------------------
     1      (5,1,1)              -0.27941301    
 -----------------------------------------------




 HEAD WILL BE SAVED ON UNIT 1018 AT END OF TIME STEP    1, STRESS PERIOD  120


  VOLUME BUDGET FOR ENTIRE MODEL AT END OF TIME STEP    1, STRESS PERIOD 120
  ---------------------------------------------------------------------------------------------------

     CUMULATIVE VOLUME      L**3       RATES FOR THIS TIME STEP      L**3/T          PACKAGE NAME    
     ------------------                 ------------------------                     ----------------

           IN:                                      IN:
           ---                                      ---
              STO-SS =           0.0000                STO-SS =           0.0000     STORAGE                          
                 WEL =           0.0000                   WEL =           0.0000     WEL-1                            
                 DRN =           0.0000                   DRN =           0.0000     SOF                              
                 GHB =           0.0000                   GHB =           0.0000     GHB-1                            
                 RCH =          28.4625                   RCH =           0.3600     RCH-1                            

            TOTAL IN =          28.4625              TOTAL IN =           0.3600

          OUT:                                     OUT:
          ----                                     ----
              STO-SS =           8.9829                STO-SS =       8.0587E-02     STORAGE                          
                 WEL =           0.0000                   WEL =           0.0000     WEL-1                            
                 DRN =           0.0000                   DRN =           0.0000     SOF                              
                 GHB =          19.4796                   GHB =           0.2794     GHB-1                            
                 RCH =           0.0000                   RCH =           0.0000     RCH-1                            

           TOTAL OUT =          28.4625             TOTAL OUT =           0.3600

            IN - OUT =       2.8501E-09              IN - OUT =       3.2196E-15

 PERCENT DISCREPANCY =           0.00     PERCENT DISCREPANCY =           0.00




         TIME SUMMARY AT END OF TIME STEP    1 IN STRESS PERIOD  120
                    SECONDS     MINUTES      HOURS       DAYS        YEARS
                    -----------------------------------------------------------
   TIME STEP LENGTH  86400.      1440.0      24.000      1.0000     2.73785E-03
 STRESS PERIOD TIME  86400.      1440.0      24.000      1.0000     2.73785E-03
         TOTAL TIME 1.03680E+07 1.72800E+05  2880.0      120.00     0.32854    


end timestep

