                                   MODFLOW 6
                U.S. GEOLOGICAL SURVEY MODULAR HYDROLOGIC MODEL
                          GROUNDWATER FLOW MODEL (GWF)
                            VERSION 6.6.1 02/10/2025

   MODFLOW 6 compiled Feb 10 2025 17:37:25 with Intel(R) Fortran Intel(R) 64
   Compiler Classic for applications running on Intel(R) 64, Version 2021.7.0
                             Build 20220726_000000

This software has been approved for release by the U.S. Geological 
Survey (USGS). Although the software has been subjected to rigorous 
review, the USGS reserves the right to update the software as needed 
pursuant to further analysis and review. No warranty, expressed or 
implied, is made by the USGS or the U.S. Government as to the 
functionality of the software and related material nor shall the 
fact of release constitute any such warranty. Furthermore, the 
software is released on condition that neither the USGS nor the U.S. 
Government shall be held liable for any damages resulting from its 
authorized or unauthorized use. Also refer to the USGS Water 
Resources Software User Rights Notice for complete use, copyright, 
and distribution information.


As a work of the United States Government, this USGS product is 
in the public domain within the United States. You can copy, 
modify, distribute, and perform the work, even for commercial 
purposes, all without asking permission. Additionally, USGS 
waives copyright and related rights in the work worldwide 
through CC0 1.0 Universal Public Domain Dedication 
(https://creativecommons.org/publicdomain/zero/1.0/).

The following GNU Lesser General Public License (LGPL) libraries
are used in this USGS product:

    SPARSKIT version 2.0
      ilut, luson, and qsplit 
      (https://www-users.cse.umn.edu/~saad/software/SPARSKIT/)

    RCM - Reverse Cuthill McKee Ordering
      (https://people.math.sc.edu/Burkardt/f_src/rcm/rcm.html)

    BLAS - Basic Linear Algebra Subprograms Level 1
      (https://people.math.sc.edu/Burkardt/f_src/blas1_d/blas1_d.html)

    SPARSEKIT - Sparse Matrix Utility Package
      amux, dperm, dvperm, rperm, and cperm
      (https://people.sc.fsu.edu/~jburkardt/f77_src/sparsekit/sparsekit.html)

The following BSD-3 License libraries are used in this USGS product:

    Modern Fortran DAG Library
      Copyright (c) 2018, Jacob Williams
      All rights reserved.
      (https://github.com/jacobwilliams/daglib)

MODFLOW 6 compiler options: /Isrc\libmf6core.a.p /Isrc /I..\src
/Isrc\libmf6_external.a.p /MTd /nologo /warn:general /warn:truncated_source
/stand:f08 /Zi /traceback /O2 /fpe:0 /heap-arrays:0 /traceback /fpp
/Qdiag-disable:7416 /Qdiag-disable:7025 /Qdiag-disable:5268
/Qdiag-disable:10448 /Fdsrc\libmf6core.a.p\Utilities_compilerversion.F90.pdb
/module:src\libmf6core.a.p
/Fosrc/libmf6core.a.p/Utilities_compilerversion.F90.obj /c

System command used to initiate simulation:
c:\src\imod_coupler\.pixi\envs\default\python.exe c:\src\MegaSWAP\run.py

MODFLOW was compiled using uniform precision.

Real Variables
  KIND: 8
  TINY (smallest non-zero value):    2.225074-308
  HUGE (largest value):    1.797693+308
  PRECISION: 15
  SIZE IN BITS: 64

Integer Variables
  KIND: 4
  HUGE (largest value): 2147483647
  SIZE IN BITS: 32

Long Integer Variables
  KIND: 8
  HUGE (largest value): 9223372036854775807
  SIZE IN BITS: 64

Logical Variables
  KIND: 4
  SIZE IN BITS: 32
 
 NAMEFILE OPTIONS:
 END NAMEFILE OPTIONS:

 DIS -- STRUCTURED GRID DISCRETIZATION PACKAGE, VERSION 2 : 3/27/2014 - INPUT READ FROM MEMPATH: __INPUT__/MODEL/DIS                               


 NPF -- NODE PROPERTY FLOW PACKAGE, VERSION 1, 3/30/2015 INPUT READ FROM MEMPATH: __INPUT__/MODEL/NPF                               


 IC -- Initial Conditions Package, Version 8, 3/28/2015 input read from mempath: __INPUT__/MODEL/IC                                


 Setting Discretization Options
    Model length unit [0=UND, 1=FEET, 2=METERS, 3=CENTIMETERS] set as 2
 End Setting Discretization Options

 Setting Discretization Dimensions
    NLAY = 5
    NROW = 1
    NCOL = 1
 End Setting Discretization Dimensions

 Setting Discretization Griddata
    DELR set from input file
    DELC set from input file
    TOP set from input file
    BOTM set from input file
 End Setting Discretization Griddata

 Setting NPF Options
    Cell-by-cell flow information will be saved to binary file whenever ICBCFL is not zero.
    Saturation will be written to DATA-SAT in budget file when requested.
 End Setting NPF Options

 Setting NPF Griddata
    ICELLTYPE set from input file
    K set from input file
    K33 not provided.  Setting K33 = K.
    K22 not provided.  Setting K22 = K.
 End Setting NPF Griddata


 WEL   -- WEL PACKAGE, VERSION 8, 2/22/2014 INPUT READ FROM MEMPATH: __INPUT__/MODEL/WEL-1                             

 PROCESSING WEL BASE OPTIONS
 END OF WEL BASE OPTIONS

 PROCESSING WEL OPTIONS
 END OF WEL OPTIONS

 PROCESSING WEL BASE DIMENSIONS
    MAXBOUND =       1
 END OF WEL BASE DIMENSIONS

 DRN   -- DRN PACKAGE, VERSION 8, 2/22/2014 INPUT READ FROM MEMPATH: __INPUT__/MODEL/SOF                               

 PROCESSING DRN BASE OPTIONS
    FLOWS WILL BE SAVED TO BUDGET FILE SPECIFIED IN OUTPUT CONTROL
    LISTS OF DRN CELLS WILL BE PRINTED.
    DRN FLOWS WILL BE PRINTED TO LISTING FILE.
 END OF DRN BASE OPTIONS

 PROCESSING DRN OPTIONS
 END OF DRN OPTIONS

 PROCESSING DRN BASE DIMENSIONS
    MAXBOUND =       1
 END OF DRN BASE DIMENSIONS

 GHB   -- GHB PACKAGE, VERSION 8, 2/22/2014 INPUT READ FROM MEMPATH: __INPUT__/MODEL/GHB-1                             

 PROCESSING GHB BASE OPTIONS
    FLOWS WILL BE SAVED TO BUDGET FILE SPECIFIED IN OUTPUT CONTROL
    LISTS OF GHB CELLS WILL BE PRINTED.
    GHB FLOWS WILL BE PRINTED TO LISTING FILE.
 END OF GHB BASE OPTIONS

 PROCESSING GHB OPTIONS
 END OF GHB OPTIONS

 PROCESSING GHB BASE DIMENSIONS
    MAXBOUND =       1
 END OF GHB BASE DIMENSIONS

 RCH   -- RCH PACKAGE, VERSION 8, 2/22/2014 INPUT READ FROM MEMPATH: __INPUT__/MODEL/RCH-1                             

 PROCESSING RCH BASE OPTIONS
 END OF RCH BASE OPTIONS

 PROCESSING RCH OPTIONS
 END OF RCH OPTIONS

 PROCESSING RCH BASE DIMENSIONS
    MAXBOUND =       1
 END OF RCH BASE DIMENSIONS
    STRT set from input file

 STO -- STORAGE PACKAGE, VERSION 1, 5/19/2014 INPUT READ FROM MEMPATH: __INPUT__/MODEL/STO                               


 PROCESSING STORAGE OPTIONS
    CELL-BY-CELL FLOW INFORMATION WILL BE SAVED TO BINARY FILE WHENEVER ICBCFL IS NOT ZERO.
    STORAGECOEFFICIENT OPTION:
 Read storage coefficient rather than specific storage
 END OF STORAGE OPTIONS
    BINARY GRID INFORMATION WILL BE WRITTEN TO:
      UNIT NUMBER: 1017
      FILE NAME: model.dis.grb

 OPENED model.dis.grb
 FILE TYPE:DATA(BINARY)   UNIT 1017   STATUS:REPLACE             
 FORMAT:UNFORMATTED            ACCESS:STREAM              
 ACTION:READWRITE           

      THE LAST TIME STEP WILL BE PRINTED
      THE LAST TIME STEP WILL BE PRINTED

 PROCESSING OC OPTIONS

    HEAD INFORMATION WILL BE WRITTEN TO:
      UNIT NUMBER: 1018
      FILE NAME: flow.hds

 OPENED flow.hds
 FILE TYPE:DATA(BINARY)   UNIT 1018   STATUS:REPLACE             
 FORMAT:UNFORMATTED            ACCESS:STREAM              
 ACTION:READWRITE           

    BUDGET INFORMATION WILL BE WRITTEN TO:
      UNIT NUMBER: 1019
      FILE NAME: flow.cbc

 OPENED flow.cbc
 FILE TYPE:DATA(BINARY)   UNIT 1019   STATUS:REPLACE             
 FORMAT:UNFORMATTED            ACCESS:STREAM              
 ACTION:READWRITE           

 END OF OC OPTIONS

start timestep kper="1" kstp="1" mode="normal"


 BEGIN READING OUTPUT CONTROL FOR STRESS PERIOD 1
      ALL TIME STEPS WILL BE SAVED
      ALL TIME STEPS WILL BE SAVED

 END READING OUTPUT CONTROL FOR STRESS PERIOD 1


 PROCESSING STORAGE PERIOD DATA
 END PROCESSING STORAGE PERIOD DATA


 STRESS PERIOD 1 IS TRANSIENT

 ----------------------------------
  DRN NO.    LAYER    ROW     COL  
 ----------------------------------
     1         1       1       1   
 ----------------------------------


 ----------------------------------
  GHB NO.    LAYER    ROW     COL  
 ----------------------------------
     1         5       1       1   
 ----------------------------------


 UBDSV1 SAVING           STO-SS ON UNIT   1019 AT TIME STEP      1, STRESS PERIOD      1
 UBDSV1 SAVING     FLOW-JA-FACE ON UNIT   1019 AT TIME STEP      1, STRESS PERIOD      1
 UBDSV06 SAVING         DATA-SAT IN MODEL MODEL            PACKAGE NPF             CONNECTED TO MODEL MODEL            PACKAGE NPF              ON UNIT   1019 AT TIME STEP      1, STRESS PERIOD      1
 UBDSV06 SAVING              DRN IN MODEL MODEL            PACKAGE MODEL           CONNECTED TO MODEL MODEL            PACKAGE SOF              ON UNIT   1019 AT TIME STEP      1, STRESS PERIOD      1
 UBDSV06 SAVING              GHB IN MODEL MODEL            PACKAGE MODEL           CONNECTED TO MODEL MODEL            PACKAGE GHB-1            ON UNIT   1019 AT TIME STEP      1, STRESS PERIOD      1

 DRN PACKAGE (SOF) FLOW RATES   PERIOD      1   STEP        1
 -----------------------------------------------
   NUMBER   CELLID                    RATE      
 -----------------------------------------------
     1      (1,1,1)               0.0000000     
 -----------------------------------------------




 GHB PACKAGE (GHB-1) FLOW RATES   PERIOD      1   STEP        1
 -----------------------------------------------
   NUMBER   CELLID                    RATE      
 -----------------------------------------------
     1      (5,1,1)               8.32708475E-04
 -----------------------------------------------




 HEAD WILL BE SAVED ON UNIT 1018 AT END OF TIME STEP    1, STRESS PERIOD    1


  VOLUME BUDGET FOR ENTIRE MODEL AT END OF TIME STEP    1, STRESS PERIOD   1
  ---------------------------------------------------------------------------------------------------

     CUMULATIVE VOLUME      L**3       RATES FOR THIS TIME STEP      L**3/T          PACKAGE NAME    
     ------------------                 ------------------------                     ----------------

           IN:                                      IN:
           ---                                      ---
              STO-SS =       4.0237E-02                STO-SS =       4.0237E-02     STORAGE                          
                 WEL =           0.0000                   WEL =           0.0000     WEL-1                            
                 DRN =           0.0000                   DRN =           0.0000     SOF                              
                 GHB =       8.3271E-04                   GHB =       8.3271E-04     GHB-1                            
                 RCH =           0.0000                   RCH =           0.0000     RCH-1                            

            TOTAL IN =       4.1069E-02              TOTAL IN =       4.1069E-02

          OUT:                                     OUT:
          ----                                     ----
              STO-SS =           0.0000                STO-SS =           0.0000     STORAGE                          
                 WEL =           0.0000                   WEL =           0.0000     WEL-1                            
                 DRN =           0.0000                   DRN =           0.0000     SOF                              
                 GHB =           0.0000                   GHB =           0.0000     GHB-1                            
                 RCH =       4.1069E-02                   RCH =       4.1069E-02     RCH-1                            

           TOTAL OUT =       4.1069E-02             TOTAL OUT =       4.1069E-02

            IN - OUT =       7.9166E-14              IN - OUT =       7.9166E-14

 PERCENT DISCREPANCY =           0.00     PERCENT DISCREPANCY =           0.00




         TIME SUMMARY AT END OF TIME STEP    1 IN STRESS PERIOD    1
                    SECONDS     MINUTES      HOURS       DAYS        YEARS
                    -----------------------------------------------------------
   TIME STEP LENGTH  86400.      1440.0      24.000      1.0000     2.73785E-03
 STRESS PERIOD TIME  86400.      1440.0      24.000      1.0000     2.73785E-03
         TOTAL TIME  86400.      1440.0      24.000      1.0000     2.73785E-03


end timestep


start timestep kper="2" kstp="1" mode="normal"


 END OF FILE DETECTED IN OUTPUT CONTROL.
 CURRENT OUTPUT CONTROL SETTINGS WILL BE 
 REPEATED UNTIL THE END OF THE SIMULATION.

 OUTPUT CONTROL FOR STRESS PERIOD 2 IS REPEATED USING SETTINGS FROM A PREVIOUS STRESS PERIOD.
 UBDSV1 SAVING           STO-SS ON UNIT   1019 AT TIME STEP      1, STRESS PERIOD      2
 UBDSV1 SAVING     FLOW-JA-FACE ON UNIT   1019 AT TIME STEP      1, STRESS PERIOD      2
 UBDSV06 SAVING         DATA-SAT IN MODEL MODEL            PACKAGE NPF             CONNECTED TO MODEL MODEL            PACKAGE NPF              ON UNIT   1019 AT TIME STEP      1, STRESS PERIOD      2
 UBDSV06 SAVING              DRN IN MODEL MODEL            PACKAGE MODEL           CONNECTED TO MODEL MODEL            PACKAGE SOF              ON UNIT   1019 AT TIME STEP      1, STRESS PERIOD      2
 UBDSV06 SAVING              GHB IN MODEL MODEL            PACKAGE MODEL           CONNECTED TO MODEL MODEL            PACKAGE GHB-1            ON UNIT   1019 AT TIME STEP      1, STRESS PERIOD      2

 DRN PACKAGE (SOF) FLOW RATES   PERIOD      2   STEP        1
 -----------------------------------------------
   NUMBER   CELLID                    RATE      
 -----------------------------------------------
     1      (1,1,1)               0.0000000     
 -----------------------------------------------




 GHB PACKAGE (GHB-1) FLOW RATES   PERIOD      2   STEP        1
 -----------------------------------------------
   NUMBER   CELLID                    RATE      
 -----------------------------------------------
     1      (5,1,1)               1.59326906E-03
 -----------------------------------------------




 HEAD WILL BE SAVED ON UNIT 1018 AT END OF TIME STEP    1, STRESS PERIOD    2


  VOLUME BUDGET FOR ENTIRE MODEL AT END OF TIME STEP    1, STRESS PERIOD   2
  ---------------------------------------------------------------------------------------------------

     CUMULATIVE VOLUME      L**3       RATES FOR THIS TIME STEP      L**3/T          PACKAGE NAME    
     ------------------                 ------------------------                     ----------------

           IN:                                      IN:
           ---                                      ---
              STO-SS =       7.5612E-02                STO-SS =       3.5375E-02     STORAGE                          
                 WEL =           0.0000                   WEL =           0.0000     WEL-1                            
                 DRN =           0.0000                   DRN =           0.0000     SOF                              
                 GHB =       2.4260E-03                   GHB =       1.5933E-03     GHB-1                            
                 RCH =           0.0000                   RCH =           0.0000     RCH-1                            

            TOTAL IN =       7.8038E-02              TOTAL IN =       3.6968E-02

          OUT:                                     OUT:
          ----                                     ----
              STO-SS =           0.0000                STO-SS =           0.0000     STORAGE                          
                 WEL =           0.0000                   WEL =           0.0000     WEL-1                            
                 DRN =           0.0000                   DRN =           0.0000     SOF                              
                 GHB =           0.0000                   GHB =           0.0000     GHB-1                            
                 RCH =       7.8038E-02                   RCH =       3.6968E-02     RCH-1                            

           TOTAL OUT =       7.8038E-02             TOTAL OUT =       3.6968E-02

            IN - OUT =       9.9157E-14              IN - OUT =       1.9991E-14

 PERCENT DISCREPANCY =           0.00     PERCENT DISCREPANCY =           0.00




         TIME SUMMARY AT END OF TIME STEP    1 IN STRESS PERIOD    2
                    SECONDS     MINUTES      HOURS       DAYS        YEARS
                    -----------------------------------------------------------
   TIME STEP LENGTH  86400.      1440.0      24.000      1.0000     2.73785E-03
 STRESS PERIOD TIME  86400.      1440.0      24.000      1.0000     2.73785E-03
         TOTAL TIME 1.72800E+05  2880.0      48.000      2.0000     5.47570E-03


end timestep


start timestep kper="3" kstp="1" mode="normal"


 OUTPUT CONTROL FOR STRESS PERIOD 3 IS REPEATED USING SETTINGS FROM A PREVIOUS STRESS PERIOD.
 UBDSV1 SAVING           STO-SS ON UNIT   1019 AT TIME STEP      1, STRESS PERIOD      3
 UBDSV1 SAVING     FLOW-JA-FACE ON UNIT   1019 AT TIME STEP      1, STRESS PERIOD      3
 UBDSV06 SAVING         DATA-SAT IN MODEL MODEL            PACKAGE NPF             CONNECTED TO MODEL MODEL            PACKAGE NPF              ON UNIT   1019 AT TIME STEP      1, STRESS PERIOD      3
 UBDSV06 SAVING              DRN IN MODEL MODEL            PACKAGE MODEL           CONNECTED TO MODEL MODEL            PACKAGE SOF              ON UNIT   1019 AT TIME STEP      1, STRESS PERIOD      3
 UBDSV06 SAVING              GHB IN MODEL MODEL            PACKAGE MODEL           CONNECTED TO MODEL MODEL            PACKAGE GHB-1            ON UNIT   1019 AT TIME STEP      1, STRESS PERIOD      3

 DRN PACKAGE (SOF) FLOW RATES   PERIOD      3   STEP        1
 -----------------------------------------------
   NUMBER   CELLID                    RATE      
 -----------------------------------------------
     1      (1,1,1)               0.0000000     
 -----------------------------------------------




 GHB PACKAGE (GHB-1) FLOW RATES   PERIOD      3   STEP        1
 -----------------------------------------------
   NUMBER   CELLID                    RATE      
 -----------------------------------------------
     1      (5,1,1)               2.24922400E-03
 -----------------------------------------------




 HEAD WILL BE SAVED ON UNIT 1018 AT END OF TIME STEP    1, STRESS PERIOD    3


  VOLUME BUDGET FOR ENTIRE MODEL AT END OF TIME STEP    1, STRESS PERIOD   3
  ---------------------------------------------------------------------------------------------------

     CUMULATIVE VOLUME      L**3       RATES FOR THIS TIME STEP      L**3/T          PACKAGE NAME    
     ------------------                 ------------------------                     ----------------

           IN:                                      IN:
           ---                                      ---
              STO-SS =           0.1052                STO-SS =       2.9594E-02     STORAGE                          
                 WEL =           0.0000                   WEL =           0.0000     WEL-1                            
                 DRN =           0.0000                   DRN =           0.0000     SOF                              
                 GHB =       4.6752E-03                   GHB =       2.2492E-03     GHB-1                            
                 RCH =           0.0000                   RCH =           0.0000     RCH-1                            

            TOTAL IN =           0.1099              TOTAL IN =       3.1843E-02

          OUT:                                     OUT:
          ----                                     ----
              STO-SS =           0.0000                STO-SS =           0.0000     STORAGE                          
                 WEL =           0.0000                   WEL =           0.0000     WEL-1                            
                 DRN =           0.0000                   DRN =           0.0000     SOF                              
                 GHB =           0.0000                   GHB =           0.0000     GHB-1                            
                 RCH =           0.1099                   RCH =       3.1843E-02     RCH-1                            

           TOTAL OUT =           0.1099             TOTAL OUT =       3.1843E-02

            IN - OUT =       1.0456E-13              IN - OUT =       5.3915E-15

 PERCENT DISCREPANCY =           0.00     PERCENT DISCREPANCY =           0.00




         TIME SUMMARY AT END OF TIME STEP    1 IN STRESS PERIOD    3
                    SECONDS     MINUTES      HOURS       DAYS        YEARS
                    -----------------------------------------------------------
   TIME STEP LENGTH  86400.      1440.0      24.000      1.0000     2.73785E-03
 STRESS PERIOD TIME  86400.      1440.0      24.000      1.0000     2.73785E-03
         TOTAL TIME 2.59200E+05  4320.0      72.000      3.0000     8.21355E-03


end timestep


start timestep kper="4" kstp="1" mode="normal"


 OUTPUT CONTROL FOR STRESS PERIOD 4 IS REPEATED USING SETTINGS FROM A PREVIOUS STRESS PERIOD.
 UBDSV1 SAVING           STO-SS ON UNIT   1019 AT TIME STEP      1, STRESS PERIOD      4
 UBDSV1 SAVING     FLOW-JA-FACE ON UNIT   1019 AT TIME STEP      1, STRESS PERIOD      4
 UBDSV06 SAVING         DATA-SAT IN MODEL MODEL            PACKAGE NPF             CONNECTED TO MODEL MODEL            PACKAGE NPF              ON UNIT   1019 AT TIME STEP      1, STRESS PERIOD      4
 UBDSV06 SAVING              DRN IN MODEL MODEL            PACKAGE MODEL           CONNECTED TO MODEL MODEL            PACKAGE SOF              ON UNIT   1019 AT TIME STEP      1, STRESS PERIOD      4
 UBDSV06 SAVING              GHB IN MODEL MODEL            PACKAGE MODEL           CONNECTED TO MODEL MODEL            PACKAGE GHB-1            ON UNIT   1019 AT TIME STEP      1, STRESS PERIOD      4

 DRN PACKAGE (SOF) FLOW RATES   PERIOD      4   STEP        1
 -----------------------------------------------
   NUMBER   CELLID                    RATE      
 -----------------------------------------------
     1      (1,1,1)               0.0000000     
 -----------------------------------------------




 GHB PACKAGE (GHB-1) FLOW RATES   PERIOD      4   STEP        1
 -----------------------------------------------
   NUMBER   CELLID                    RATE      
 -----------------------------------------------
     1      (5,1,1)               2.77934824E-03
 -----------------------------------------------




 HEAD WILL BE SAVED ON UNIT 1018 AT END OF TIME STEP    1, STRESS PERIOD    4


  VOLUME BUDGET FOR ENTIRE MODEL AT END OF TIME STEP    1, STRESS PERIOD   4
  ---------------------------------------------------------------------------------------------------

     CUMULATIVE VOLUME      L**3       RATES FOR THIS TIME STEP      L**3/T          PACKAGE NAME    
     ------------------                 ------------------------                     ----------------

           IN:                                      IN:
           ---                                      ---
              STO-SS =           0.1283                STO-SS =       2.3132E-02     STORAGE                          
                 WEL =           0.0000                   WEL =           0.0000     WEL-1                            
                 DRN =           0.0000                   DRN =           0.0000     SOF                              
                 GHB =       7.4545E-03                   GHB =       2.7793E-03     GHB-1                            
                 RCH =           0.0000                   RCH =           0.0000     RCH-1                            

            TOTAL IN =           0.1358              TOTAL IN =       2.5911E-02

          OUT:                                     OUT:
          ----                                     ----
              STO-SS =           0.0000                STO-SS =           0.0000     STORAGE                          
                 WEL =           0.0000                   WEL =           0.0000     WEL-1                            
                 DRN =           0.0000                   DRN =           0.0000     SOF                              
                 GHB =           0.0000                   GHB =           0.0000     GHB-1                            
                 RCH =           0.1358                   RCH =       2.5911E-02     RCH-1                            

           TOTAL OUT =           0.1358             TOTAL OUT =       2.5911E-02

            IN - OUT =       7.7466E-14              IN - OUT =      -2.7083E-14

 PERCENT DISCREPANCY =           0.00     PERCENT DISCREPANCY =          -0.00




         TIME SUMMARY AT END OF TIME STEP    1 IN STRESS PERIOD    4
                    SECONDS     MINUTES      HOURS       DAYS        YEARS
                    -----------------------------------------------------------
   TIME STEP LENGTH  86400.      1440.0      24.000      1.0000     2.73785E-03
 STRESS PERIOD TIME  86400.      1440.0      24.000      1.0000     2.73785E-03
         TOTAL TIME 3.45600E+05  5760.0      96.000      4.0000     1.09514E-02


end timestep


start timestep kper="5" kstp="1" mode="normal"


 OUTPUT CONTROL FOR STRESS PERIOD 5 IS REPEATED USING SETTINGS FROM A PREVIOUS STRESS PERIOD.
 UBDSV1 SAVING           STO-SS ON UNIT   1019 AT TIME STEP      1, STRESS PERIOD      5
 UBDSV1 SAVING     FLOW-JA-FACE ON UNIT   1019 AT TIME STEP      1, STRESS PERIOD      5
 UBDSV06 SAVING         DATA-SAT IN MODEL MODEL            PACKAGE NPF             CONNECTED TO MODEL MODEL            PACKAGE NPF              ON UNIT   1019 AT TIME STEP      1, STRESS PERIOD      5
 UBDSV06 SAVING              DRN IN MODEL MODEL            PACKAGE MODEL           CONNECTED TO MODEL MODEL            PACKAGE SOF              ON UNIT   1019 AT TIME STEP      1, STRESS PERIOD      5
 UBDSV06 SAVING              GHB IN MODEL MODEL            PACKAGE MODEL           CONNECTED TO MODEL MODEL            PACKAGE GHB-1            ON UNIT   1019 AT TIME STEP      1, STRESS PERIOD      5

 DRN PACKAGE (SOF) FLOW RATES   PERIOD      5   STEP        1
 -----------------------------------------------
   NUMBER   CELLID                    RATE      
 -----------------------------------------------
     1      (1,1,1)               0.0000000     
 -----------------------------------------------




 GHB PACKAGE (GHB-1) FLOW RATES   PERIOD      5   STEP        1
 -----------------------------------------------
   NUMBER   CELLID                    RATE      
 -----------------------------------------------
     1      (5,1,1)               3.15515865E-03
 -----------------------------------------------




 HEAD WILL BE SAVED ON UNIT 1018 AT END OF TIME STEP    1, STRESS PERIOD    5


  VOLUME BUDGET FOR ENTIRE MODEL AT END OF TIME STEP    1, STRESS PERIOD   5
  ---------------------------------------------------------------------------------------------------

     CUMULATIVE VOLUME      L**3       RATES FOR THIS TIME STEP      L**3/T          PACKAGE NAME    
     ------------------                 ------------------------                     ----------------

           IN:                                      IN:
           ---                                      ---
              STO-SS =           0.1442                STO-SS =       1.5885E-02     STORAGE                          
                 WEL =           0.0000                   WEL =           0.0000     WEL-1                            
                 DRN =           0.0000                   DRN =           0.0000     SOF                              
                 GHB =       1.0610E-02                   GHB =       3.1552E-03     GHB-1                            
                 RCH =           0.0000                   RCH =           0.0000     RCH-1                            

            TOTAL IN =           0.1548              TOTAL IN =       1.9040E-02

          OUT:                                     OUT:
          ----                                     ----
              STO-SS =           0.0000                STO-SS =           0.0000     STORAGE                          
                 WEL =           0.0000                   WEL =           0.0000     WEL-1                            
                 DRN =           0.0000                   DRN =           0.0000     SOF                              
                 GHB =           0.0000                   GHB =           0.0000     GHB-1                            
                 RCH =           0.1548                   RCH =       1.9040E-02     RCH-1                            

           TOTAL OUT =           0.1548             TOTAL OUT =       1.9040E-02

            IN - OUT =       8.2018E-14              IN - OUT =       4.5589E-15

 PERCENT DISCREPANCY =           0.00     PERCENT DISCREPANCY =           0.00




         TIME SUMMARY AT END OF TIME STEP    1 IN STRESS PERIOD    5
                    SECONDS     MINUTES      HOURS       DAYS        YEARS
                    -----------------------------------------------------------
   TIME STEP LENGTH  86400.      1440.0      24.000      1.0000     2.73785E-03
 STRESS PERIOD TIME  86400.      1440.0      24.000      1.0000     2.73785E-03
         TOTAL TIME 4.32000E+05  7200.0      120.00      5.0000     1.36893E-02


end timestep


start timestep kper="6" kstp="1" mode="normal"


 OUTPUT CONTROL FOR STRESS PERIOD 6 IS REPEATED USING SETTINGS FROM A PREVIOUS STRESS PERIOD.
 UBDSV1 SAVING           STO-SS ON UNIT   1019 AT TIME STEP      1, STRESS PERIOD      6
 UBDSV1 SAVING     FLOW-JA-FACE ON UNIT   1019 AT TIME STEP      1, STRESS PERIOD      6
 UBDSV06 SAVING         DATA-SAT IN MODEL MODEL            PACKAGE NPF             CONNECTED TO MODEL MODEL            PACKAGE NPF              ON UNIT   1019 AT TIME STEP      1, STRESS PERIOD      6
 UBDSV06 SAVING              DRN IN MODEL MODEL            PACKAGE MODEL           CONNECTED TO MODEL MODEL            PACKAGE SOF              ON UNIT   1019 AT TIME STEP      1, STRESS PERIOD      6
 UBDSV06 SAVING              GHB IN MODEL MODEL            PACKAGE MODEL           CONNECTED TO MODEL MODEL            PACKAGE GHB-1            ON UNIT   1019 AT TIME STEP      1, STRESS PERIOD      6

 DRN PACKAGE (SOF) FLOW RATES   PERIOD      6   STEP        1
 -----------------------------------------------
   NUMBER   CELLID                    RATE      
 -----------------------------------------------
     1      (1,1,1)               0.0000000     
 -----------------------------------------------




 GHB PACKAGE (GHB-1) FLOW RATES   PERIOD      6   STEP        1
 -----------------------------------------------
   NUMBER   CELLID                    RATE      
 -----------------------------------------------
     1      (5,1,1)               3.36467978E-03
 -----------------------------------------------




 HEAD WILL BE SAVED ON UNIT 1018 AT END OF TIME STEP    1, STRESS PERIOD    6


  VOLUME BUDGET FOR ENTIRE MODEL AT END OF TIME STEP    1, STRESS PERIOD   6
  ---------------------------------------------------------------------------------------------------

     CUMULATIVE VOLUME      L**3       RATES FOR THIS TIME STEP      L**3/T          PACKAGE NAME    
     ------------------                 ------------------------                     ----------------

           IN:                                      IN:
           ---                                      ---
              STO-SS =           0.1528                STO-SS =       8.6160E-03     STORAGE                          
                 WEL =           0.0000                   WEL =           0.0000     WEL-1                            
                 DRN =           0.0000                   DRN =           0.0000     SOF                              
                 GHB =       1.3974E-02                   GHB =       3.3647E-03     GHB-1                            
                 RCH =           0.0000                   RCH =           0.0000     RCH-1                            

            TOTAL IN =           0.1668              TOTAL IN =       1.1981E-02

          OUT:                                     OUT:
          ----                                     ----
              STO-SS =           0.0000                STO-SS =           0.0000     STORAGE                          
                 WEL =           0.0000                   WEL =           0.0000     WEL-1                            
                 DRN =           0.0000                   DRN =           0.0000     SOF                              
                 GHB =           0.0000                   GHB =           0.0000     GHB-1                            
                 RCH =           0.1668                   RCH =       1.1981E-02     RCH-1                            

           TOTAL OUT =           0.1668             TOTAL OUT =       1.1981E-02

            IN - OUT =       6.8862E-14              IN - OUT =      -1.3147E-14

 PERCENT DISCREPANCY =           0.00     PERCENT DISCREPANCY =          -0.00




         TIME SUMMARY AT END OF TIME STEP    1 IN STRESS PERIOD    6
                    SECONDS     MINUTES      HOURS       DAYS        YEARS
                    -----------------------------------------------------------
   TIME STEP LENGTH  86400.      1440.0      24.000      1.0000     2.73785E-03
 STRESS PERIOD TIME  86400.      1440.0      24.000      1.0000     2.73785E-03
         TOTAL TIME 5.18400E+05  8640.0      144.00      6.0000     1.64271E-02


end timestep


start timestep kper="7" kstp="1" mode="normal"


 OUTPUT CONTROL FOR STRESS PERIOD 7 IS REPEATED USING SETTINGS FROM A PREVIOUS STRESS PERIOD.
 UBDSV1 SAVING           STO-SS ON UNIT   1019 AT TIME STEP      1, STRESS PERIOD      7
 UBDSV1 SAVING     FLOW-JA-FACE ON UNIT   1019 AT TIME STEP      1, STRESS PERIOD      7
 UBDSV06 SAVING         DATA-SAT IN MODEL MODEL            PACKAGE NPF             CONNECTED TO MODEL MODEL            PACKAGE NPF              ON UNIT   1019 AT TIME STEP      1, STRESS PERIOD      7
 UBDSV06 SAVING              DRN IN MODEL MODEL            PACKAGE MODEL           CONNECTED TO MODEL MODEL            PACKAGE SOF              ON UNIT   1019 AT TIME STEP      1, STRESS PERIOD      7
 UBDSV06 SAVING              GHB IN MODEL MODEL            PACKAGE MODEL           CONNECTED TO MODEL MODEL            PACKAGE GHB-1            ON UNIT   1019 AT TIME STEP      1, STRESS PERIOD      7

 DRN PACKAGE (SOF) FLOW RATES   PERIOD      7   STEP        1
 -----------------------------------------------
   NUMBER   CELLID                    RATE      
 -----------------------------------------------
     1      (1,1,1)               0.0000000     
 -----------------------------------------------




 GHB PACKAGE (GHB-1) FLOW RATES   PERIOD      7   STEP        1
 -----------------------------------------------
   NUMBER   CELLID                    RATE      
 -----------------------------------------------
     1      (5,1,1)               3.40301778E-03
 -----------------------------------------------




 HEAD WILL BE SAVED ON UNIT 1018 AT END OF TIME STEP    1, STRESS PERIOD    7


  VOLUME BUDGET FOR ENTIRE MODEL AT END OF TIME STEP    1, STRESS PERIOD   7
  ---------------------------------------------------------------------------------------------------

     CUMULATIVE VOLUME      L**3       RATES FOR THIS TIME STEP      L**3/T          PACKAGE NAME    
     ------------------                 ------------------------                     ----------------

           IN:                                      IN:
           ---                                      ---
              STO-SS =           0.1543                STO-SS =       1.4951E-03     STORAGE                          
                 WEL =           0.0000                   WEL =           0.0000     WEL-1                            
                 DRN =           0.0000                   DRN =           0.0000     SOF                              
                 GHB =       1.7377E-02                   GHB =       3.4030E-03     GHB-1                            
                 RCH =           0.0000                   RCH =           0.0000     RCH-1                            

            TOTAL IN =           0.1717              TOTAL IN =       4.8981E-03

          OUT:                                     OUT:
          ----                                     ----
              STO-SS =           0.0000                STO-SS =           0.0000     STORAGE                          
                 WEL =           0.0000                   WEL =           0.0000     WEL-1                            
                 DRN =           0.0000                   DRN =           0.0000     SOF                              
                 GHB =           0.0000                   GHB =           0.0000     GHB-1                            
                 RCH =           0.1717                   RCH =       4.8981E-03     RCH-1                            

           TOTAL OUT =           0.1717             TOTAL OUT =       4.8981E-03

            IN - OUT =      -4.0454E-13              IN - OUT =      -4.7339E-13

 PERCENT DISCREPANCY =          -0.00     PERCENT DISCREPANCY =          -0.00




         TIME SUMMARY AT END OF TIME STEP    1 IN STRESS PERIOD    7
                    SECONDS     MINUTES      HOURS       DAYS        YEARS
                    -----------------------------------------------------------
   TIME STEP LENGTH  86400.      1440.0      24.000      1.0000     2.73785E-03
 STRESS PERIOD TIME  86400.      1440.0      24.000      1.0000     2.73785E-03
         TOTAL TIME 6.04800E+05  10080.      168.00      7.0000     1.91650E-02


end timestep


start timestep kper="8" kstp="1" mode="normal"


 OUTPUT CONTROL FOR STRESS PERIOD 8 IS REPEATED USING SETTINGS FROM A PREVIOUS STRESS PERIOD.
 UBDSV1 SAVING           STO-SS ON UNIT   1019 AT TIME STEP      1, STRESS PERIOD      8
 UBDSV1 SAVING     FLOW-JA-FACE ON UNIT   1019 AT TIME STEP      1, STRESS PERIOD      8
 UBDSV06 SAVING         DATA-SAT IN MODEL MODEL            PACKAGE NPF             CONNECTED TO MODEL MODEL            PACKAGE NPF              ON UNIT   1019 AT TIME STEP      1, STRESS PERIOD      8
 UBDSV06 SAVING              DRN IN MODEL MODEL            PACKAGE MODEL           CONNECTED TO MODEL MODEL            PACKAGE SOF              ON UNIT   1019 AT TIME STEP      1, STRESS PERIOD      8
 UBDSV06 SAVING              GHB IN MODEL MODEL            PACKAGE MODEL           CONNECTED TO MODEL MODEL            PACKAGE GHB-1            ON UNIT   1019 AT TIME STEP      1, STRESS PERIOD      8

 DRN PACKAGE (SOF) FLOW RATES   PERIOD      8   STEP        1
 -----------------------------------------------
   NUMBER   CELLID                    RATE      
 -----------------------------------------------
     1      (1,1,1)               0.0000000     
 -----------------------------------------------




 GHB PACKAGE (GHB-1) FLOW RATES   PERIOD      8   STEP        1
 -----------------------------------------------
   NUMBER   CELLID                    RATE      
 -----------------------------------------------
     1      (5,1,1)               3.26658720E-03
 -----------------------------------------------




 HEAD WILL BE SAVED ON UNIT 1018 AT END OF TIME STEP    1, STRESS PERIOD    8


  VOLUME BUDGET FOR ENTIRE MODEL AT END OF TIME STEP    1, STRESS PERIOD   8
  ---------------------------------------------------------------------------------------------------

     CUMULATIVE VOLUME      L**3       RATES FOR THIS TIME STEP      L**3/T          PACKAGE NAME    
     ------------------                 ------------------------                     ----------------

           IN:                                      IN:
           ---                                      ---
              STO-SS =           0.1543                STO-SS =           0.0000     STORAGE                          
                 WEL =           0.0000                   WEL =           0.0000     WEL-1                            
                 DRN =           0.0000                   DRN =           0.0000     SOF                              
                 GHB =       2.0644E-02                   GHB =       3.2666E-03     GHB-1                            
                 RCH =       2.2762E-03                   RCH =       2.2762E-03     RCH-1                            

            TOTAL IN =           0.1773              TOTAL IN =       5.5428E-03

          OUT:                                     OUT:
          ----                                     ----
              STO-SS =       5.5428E-03                STO-SS =       5.5428E-03     STORAGE                          
                 WEL =           0.0000                   WEL =           0.0000     WEL-1                            
                 DRN =           0.0000                   DRN =           0.0000     SOF                              
                 GHB =           0.0000                   GHB =           0.0000     GHB-1                            
                 RCH =           0.1717                   RCH =           0.0000     RCH-1                            

           TOTAL OUT =           0.1773             TOTAL OUT =       5.5428E-03

            IN - OUT =      -3.9230E-13              IN - OUT =       1.2249E-14

 PERCENT DISCREPANCY =          -0.00     PERCENT DISCREPANCY =           0.00




         TIME SUMMARY AT END OF TIME STEP    1 IN STRESS PERIOD    8
                    SECONDS     MINUTES      HOURS       DAYS        YEARS
                    -----------------------------------------------------------
   TIME STEP LENGTH  86400.      1440.0      24.000      1.0000     2.73785E-03
 STRESS PERIOD TIME  86400.      1440.0      24.000      1.0000     2.73785E-03
         TOTAL TIME 6.91200E+05  11520.      192.00      8.0000     2.19028E-02


end timestep


start timestep kper="9" kstp="1" mode="normal"


 OUTPUT CONTROL FOR STRESS PERIOD 9 IS REPEATED USING SETTINGS FROM A PREVIOUS STRESS PERIOD.
 UBDSV1 SAVING           STO-SS ON UNIT   1019 AT TIME STEP      1, STRESS PERIOD      9
 UBDSV1 SAVING     FLOW-JA-FACE ON UNIT   1019 AT TIME STEP      1, STRESS PERIOD      9
 UBDSV06 SAVING         DATA-SAT IN MODEL MODEL            PACKAGE NPF             CONNECTED TO MODEL MODEL            PACKAGE NPF              ON UNIT   1019 AT TIME STEP      1, STRESS PERIOD      9
 UBDSV06 SAVING              DRN IN MODEL MODEL            PACKAGE MODEL           CONNECTED TO MODEL MODEL            PACKAGE SOF              ON UNIT   1019 AT TIME STEP      1, STRESS PERIOD      9
 UBDSV06 SAVING              GHB IN MODEL MODEL            PACKAGE MODEL           CONNECTED TO MODEL MODEL            PACKAGE GHB-1            ON UNIT   1019 AT TIME STEP      1, STRESS PERIOD      9

 DRN PACKAGE (SOF) FLOW RATES   PERIOD      9   STEP        1
 -----------------------------------------------
   NUMBER   CELLID                    RATE      
 -----------------------------------------------
     1      (1,1,1)               0.0000000     
 -----------------------------------------------




 GHB PACKAGE (GHB-1) FLOW RATES   PERIOD      9   STEP        1
 -----------------------------------------------
   NUMBER   CELLID                    RATE      
 -----------------------------------------------
     1      (5,1,1)               2.93601726E-03
 -----------------------------------------------




 HEAD WILL BE SAVED ON UNIT 1018 AT END OF TIME STEP    1, STRESS PERIOD    9


  VOLUME BUDGET FOR ENTIRE MODEL AT END OF TIME STEP    1, STRESS PERIOD   9
  ---------------------------------------------------------------------------------------------------

     CUMULATIVE VOLUME      L**3       RATES FOR THIS TIME STEP      L**3/T          PACKAGE NAME    
     ------------------                 ------------------------                     ----------------

           IN:                                      IN:
           ---                                      ---
              STO-SS =           0.1543                STO-SS =           0.0000     STORAGE                          
                 WEL =           0.0000                   WEL =           0.0000     WEL-1                            
                 DRN =           0.0000                   DRN =           0.0000     SOF                              
                 GHB =       2.3580E-02                   GHB =       2.9360E-03     GHB-1                            
                 RCH =       1.2408E-02                   RCH =       1.0132E-02     RCH-1                            

            TOTAL IN =           0.1903              TOTAL IN =       1.3068E-02

          OUT:                                     OUT:
          ----                                     ----
              STO-SS =       1.8611E-02                STO-SS =       1.3068E-02     STORAGE                          
                 WEL =           0.0000                   WEL =           0.0000     WEL-1                            
                 DRN =           0.0000                   DRN =           0.0000     SOF                              
                 GHB =           0.0000                   GHB =           0.0000     GHB-1                            
                 RCH =           0.1717                   RCH =           0.0000     RCH-1                            

           TOTAL OUT =           0.1903             TOTAL OUT =       1.3068E-02

            IN - OUT =      -2.9907E-13              IN - OUT =       9.3212E-14

 PERCENT DISCREPANCY =          -0.00     PERCENT DISCREPANCY =           0.00




         TIME SUMMARY AT END OF TIME STEP    1 IN STRESS PERIOD    9
                    SECONDS     MINUTES      HOURS       DAYS        YEARS
                    -----------------------------------------------------------
   TIME STEP LENGTH  86400.      1440.0      24.000      1.0000     2.73785E-03
 STRESS PERIOD TIME  86400.      1440.0      24.000      1.0000     2.73785E-03
         TOTAL TIME 7.77600E+05  12960.      216.00      9.0000     2.46407E-02


end timestep


start timestep kper="10" kstp="1" mode="normal"


 OUTPUT CONTROL FOR STRESS PERIOD 10 IS REPEATED USING SETTINGS FROM A PREVIOUS STRESS PERIOD.
 UBDSV1 SAVING           STO-SS ON UNIT   1019 AT TIME STEP      1, STRESS PERIOD     10
 UBDSV1 SAVING     FLOW-JA-FACE ON UNIT   1019 AT TIME STEP      1, STRESS PERIOD     10
 UBDSV06 SAVING         DATA-SAT IN MODEL MODEL            PACKAGE NPF             CONNECTED TO MODEL MODEL            PACKAGE NPF              ON UNIT   1019 AT TIME STEP      1, STRESS PERIOD     10
 UBDSV06 SAVING              DRN IN MODEL MODEL            PACKAGE MODEL           CONNECTED TO MODEL MODEL            PACKAGE SOF              ON UNIT   1019 AT TIME STEP      1, STRESS PERIOD     10
 UBDSV06 SAVING              GHB IN MODEL MODEL            PACKAGE MODEL           CONNECTED TO MODEL MODEL            PACKAGE GHB-1            ON UNIT   1019 AT TIME STEP      1, STRESS PERIOD     10

 DRN PACKAGE (SOF) FLOW RATES   PERIOD     10   STEP        1
 -----------------------------------------------
   NUMBER   CELLID                    RATE      
 -----------------------------------------------
     1      (1,1,1)               0.0000000     
 -----------------------------------------------




 GHB PACKAGE (GHB-1) FLOW RATES   PERIOD     10   STEP        1
 -----------------------------------------------
   NUMBER   CELLID                    RATE      
 -----------------------------------------------
     1      (5,1,1)               2.38868565E-03
 -----------------------------------------------




 HEAD WILL BE SAVED ON UNIT 1018 AT END OF TIME STEP    1, STRESS PERIOD   10


  VOLUME BUDGET FOR ENTIRE MODEL AT END OF TIME STEP    1, STRESS PERIOD  10
  ---------------------------------------------------------------------------------------------------

     CUMULATIVE VOLUME      L**3       RATES FOR THIS TIME STEP      L**3/T          PACKAGE NAME    
     ------------------                 ------------------------                     ----------------

           IN:                                      IN:
           ---                                      ---
              STO-SS =           0.1543                STO-SS =           0.0000     STORAGE                          
                 WEL =           0.0000                   WEL =           0.0000     WEL-1                            
                 DRN =           0.0000                   DRN =           0.0000     SOF                              
                 GHB =       2.5969E-02                   GHB =       2.3887E-03     GHB-1                            
                 RCH =       3.1137E-02                   RCH =       1.8729E-02     RCH-1                            

            TOTAL IN =           0.2114              TOTAL IN =       2.1118E-02

          OUT:                                     OUT:
          ----                                     ----
              STO-SS =       3.9728E-02                STO-SS =       2.1118E-02     STORAGE                          
                 WEL =           0.0000                   WEL =           0.0000     WEL-1                            
                 DRN =           0.0000                   DRN =           0.0000     SOF                              
                 GHB =           0.0000                   GHB =           0.0000     GHB-1                            
                 RCH =           0.1717                   RCH =           0.0000     RCH-1                            

           TOTAL OUT =           0.2114             TOTAL OUT =       2.1118E-02

            IN - OUT =      -1.3309E-13              IN - OUT =       1.6599E-13

 PERCENT DISCREPANCY =          -0.00     PERCENT DISCREPANCY =           0.00




         TIME SUMMARY AT END OF TIME STEP    1 IN STRESS PERIOD   10
                    SECONDS     MINUTES      HOURS       DAYS        YEARS
                    -----------------------------------------------------------
   TIME STEP LENGTH  86400.      1440.0      24.000      1.0000     2.73785E-03
 STRESS PERIOD TIME  86400.      1440.0      24.000      1.0000     2.73785E-03
         TOTAL TIME 8.64000E+05  14400.      240.00      10.000     2.73785E-02


end timestep


start timestep kper="11" kstp="1" mode="normal"


 OUTPUT CONTROL FOR STRESS PERIOD 11 IS REPEATED USING SETTINGS FROM A PREVIOUS STRESS PERIOD.
 UBDSV1 SAVING           STO-SS ON UNIT   1019 AT TIME STEP      1, STRESS PERIOD     11
 UBDSV1 SAVING     FLOW-JA-FACE ON UNIT   1019 AT TIME STEP      1, STRESS PERIOD     11
 UBDSV06 SAVING         DATA-SAT IN MODEL MODEL            PACKAGE NPF             CONNECTED TO MODEL MODEL            PACKAGE NPF              ON UNIT   1019 AT TIME STEP      1, STRESS PERIOD     11
 UBDSV06 SAVING              DRN IN MODEL MODEL            PACKAGE MODEL           CONNECTED TO MODEL MODEL            PACKAGE SOF              ON UNIT   1019 AT TIME STEP      1, STRESS PERIOD     11
 UBDSV06 SAVING              GHB IN MODEL MODEL            PACKAGE MODEL           CONNECTED TO MODEL MODEL            PACKAGE GHB-1            ON UNIT   1019 AT TIME STEP      1, STRESS PERIOD     11

 DRN PACKAGE (SOF) FLOW RATES   PERIOD     11   STEP        1
 -----------------------------------------------
   NUMBER   CELLID                    RATE      
 -----------------------------------------------
     1      (1,1,1)               0.0000000     
 -----------------------------------------------




 GHB PACKAGE (GHB-1) FLOW RATES   PERIOD     11   STEP        1
 -----------------------------------------------
   NUMBER   CELLID                    RATE      
 -----------------------------------------------
     1      (5,1,1)               1.59491926E-03
 -----------------------------------------------




 HEAD WILL BE SAVED ON UNIT 1018 AT END OF TIME STEP    1, STRESS PERIOD   11


  VOLUME BUDGET FOR ENTIRE MODEL AT END OF TIME STEP    1, STRESS PERIOD  11
  ---------------------------------------------------------------------------------------------------

     CUMULATIVE VOLUME      L**3       RATES FOR THIS TIME STEP      L**3/T          PACKAGE NAME    
     ------------------                 ------------------------                     ----------------

           IN:                                      IN:
           ---                                      ---
              STO-SS =           0.1543                STO-SS =           0.0000     STORAGE                          
                 WEL =           0.0000                   WEL =           0.0000     WEL-1                            
                 DRN =           0.0000                   DRN =           0.0000     SOF                              
                 GHB =       2.7564E-02                   GHB =       1.5949E-03     GHB-1                            
                 RCH =       5.9388E-02                   RCH =       2.8251E-02     RCH-1                            

            TOTAL IN =           0.2413              TOTAL IN =       2.9846E-02

          OUT:                                     OUT:
          ----                                     ----
              STO-SS =       6.9574E-02                STO-SS =       2.9846E-02     STORAGE                          
                 WEL =           0.0000                   WEL =           0.0000     WEL-1                            
                 DRN =           0.0000                   DRN =           0.0000     SOF                              
                 GHB =           0.0000                   GHB =           0.0000     GHB-1                            
                 RCH =           0.1717                   RCH =           0.0000     RCH-1                            

           TOTAL OUT =           0.2413             TOTAL OUT =       2.9846E-02

            IN - OUT =      -9.0539E-14              IN - OUT =       4.2556E-14

 PERCENT DISCREPANCY =          -0.00     PERCENT DISCREPANCY =           0.00




         TIME SUMMARY AT END OF TIME STEP    1 IN STRESS PERIOD   11
                    SECONDS     MINUTES      HOURS       DAYS        YEARS
                    -----------------------------------------------------------
   TIME STEP LENGTH  86400.      1440.0      24.000      1.0000     2.73785E-03
 STRESS PERIOD TIME  86400.      1440.0      24.000      1.0000     2.73785E-03
         TOTAL TIME 9.50400E+05  15840.      264.00      11.000     3.01164E-02


end timestep


start timestep kper="12" kstp="1" mode="normal"


 OUTPUT CONTROL FOR STRESS PERIOD 12 IS REPEATED USING SETTINGS FROM A PREVIOUS STRESS PERIOD.
 UBDSV1 SAVING           STO-SS ON UNIT   1019 AT TIME STEP      1, STRESS PERIOD     12
 UBDSV1 SAVING     FLOW-JA-FACE ON UNIT   1019 AT TIME STEP      1, STRESS PERIOD     12
 UBDSV06 SAVING         DATA-SAT IN MODEL MODEL            PACKAGE NPF             CONNECTED TO MODEL MODEL            PACKAGE NPF              ON UNIT   1019 AT TIME STEP      1, STRESS PERIOD     12
 UBDSV06 SAVING              DRN IN MODEL MODEL            PACKAGE MODEL           CONNECTED TO MODEL MODEL            PACKAGE SOF              ON UNIT   1019 AT TIME STEP      1, STRESS PERIOD     12
 UBDSV06 SAVING              GHB IN MODEL MODEL            PACKAGE MODEL           CONNECTED TO MODEL MODEL            PACKAGE GHB-1            ON UNIT   1019 AT TIME STEP      1, STRESS PERIOD     12

 DRN PACKAGE (SOF) FLOW RATES   PERIOD     12   STEP        1
 -----------------------------------------------
   NUMBER   CELLID                    RATE      
 -----------------------------------------------
     1      (1,1,1)               0.0000000     
 -----------------------------------------------




 GHB PACKAGE (GHB-1) FLOW RATES   PERIOD     12   STEP        1
 -----------------------------------------------
   NUMBER   CELLID                    RATE      
 -----------------------------------------------
     1      (5,1,1)               5.18865514E-04
 -----------------------------------------------




 HEAD WILL BE SAVED ON UNIT 1018 AT END OF TIME STEP    1, STRESS PERIOD   12


  VOLUME BUDGET FOR ENTIRE MODEL AT END OF TIME STEP    1, STRESS PERIOD  12
  ---------------------------------------------------------------------------------------------------

     CUMULATIVE VOLUME      L**3       RATES FOR THIS TIME STEP      L**3/T          PACKAGE NAME    
     ------------------                 ------------------------                     ----------------

           IN:                                      IN:
           ---                                      ---
              STO-SS =           0.1543                STO-SS =           0.0000     STORAGE                          
                 WEL =           0.0000                   WEL =           0.0000     WEL-1                            
                 DRN =           0.0000                   DRN =           0.0000     SOF                              
                 GHB =       2.8082E-02                   GHB =       5.1887E-04     GHB-1                            
                 RCH =       9.8141E-02                   RCH =       3.8753E-02     RCH-1                            

            TOTAL IN =           0.2806              TOTAL IN =       3.9272E-02

          OUT:                                     OUT:
          ----                                     ----
              STO-SS =           0.1088                STO-SS =       3.9272E-02     STORAGE                          
                 WEL =           0.0000                   WEL =           0.0000     WEL-1                            
                 DRN =           0.0000                   DRN =           0.0000     SOF                              
                 GHB =           0.0000                   GHB =           0.0000     GHB-1                            
                 RCH =           0.1717                   RCH =           0.0000     RCH-1                            

           TOTAL OUT =           0.2806             TOTAL OUT =       3.9272E-02

            IN - OUT =      -7.0610E-14              IN - OUT =       1.9908E-14

 PERCENT DISCREPANCY =          -0.00     PERCENT DISCREPANCY =           0.00




         TIME SUMMARY AT END OF TIME STEP    1 IN STRESS PERIOD   12
                    SECONDS     MINUTES      HOURS       DAYS        YEARS
                    -----------------------------------------------------------
   TIME STEP LENGTH  86400.      1440.0      24.000      1.0000     2.73785E-03
 STRESS PERIOD TIME  86400.      1440.0      24.000      1.0000     2.73785E-03
         TOTAL TIME 1.03680E+06  17280.      288.00      12.000     3.28542E-02


end timestep


start timestep kper="13" kstp="1" mode="normal"


 OUTPUT CONTROL FOR STRESS PERIOD 13 IS REPEATED USING SETTINGS FROM A PREVIOUS STRESS PERIOD.
 UBDSV1 SAVING           STO-SS ON UNIT   1019 AT TIME STEP      1, STRESS PERIOD     13
 UBDSV1 SAVING     FLOW-JA-FACE ON UNIT   1019 AT TIME STEP      1, STRESS PERIOD     13
 UBDSV06 SAVING         DATA-SAT IN MODEL MODEL            PACKAGE NPF             CONNECTED TO MODEL MODEL            PACKAGE NPF              ON UNIT   1019 AT TIME STEP      1, STRESS PERIOD     13
 UBDSV06 SAVING              DRN IN MODEL MODEL            PACKAGE MODEL           CONNECTED TO MODEL MODEL            PACKAGE SOF              ON UNIT   1019 AT TIME STEP      1, STRESS PERIOD     13
 UBDSV06 SAVING              GHB IN MODEL MODEL            PACKAGE MODEL           CONNECTED TO MODEL MODEL            PACKAGE GHB-1            ON UNIT   1019 AT TIME STEP      1, STRESS PERIOD     13

 DRN PACKAGE (SOF) FLOW RATES   PERIOD     13   STEP        1
 -----------------------------------------------
   NUMBER   CELLID                    RATE      
 -----------------------------------------------
     1      (1,1,1)               0.0000000     
 -----------------------------------------------




 GHB PACKAGE (GHB-1) FLOW RATES   PERIOD     13   STEP        1
 -----------------------------------------------
   NUMBER   CELLID                    RATE      
 -----------------------------------------------
     1      (5,1,1)              -9.90402729E-04
 -----------------------------------------------




 HEAD WILL BE SAVED ON UNIT 1018 AT END OF TIME STEP    1, STRESS PERIOD   13


  VOLUME BUDGET FOR ENTIRE MODEL AT END OF TIME STEP    1, STRESS PERIOD  13
  ---------------------------------------------------------------------------------------------------

     CUMULATIVE VOLUME      L**3       RATES FOR THIS TIME STEP      L**3/T          PACKAGE NAME    
     ------------------                 ------------------------                     ----------------

           IN:                                      IN:
           ---                                      ---
              STO-SS =           0.1543                STO-SS =           0.0000     STORAGE                          
                 WEL =           0.0000                   WEL =           0.0000     WEL-1                            
                 DRN =           0.0000                   DRN =           0.0000     SOF                              
                 GHB =       2.8082E-02                   GHB =           0.0000     GHB-1                            
                 RCH =           0.1482                   RCH =       5.0102E-02     RCH-1                            

            TOTAL IN =           0.3307              TOTAL IN =       5.0102E-02

          OUT:                                     OUT:
          ----                                     ----
              STO-SS =           0.1580                STO-SS =       4.9112E-02     STORAGE                          
                 WEL =           0.0000                   WEL =           0.0000     WEL-1                            
                 DRN =           0.0000                   DRN =           0.0000     SOF                              
                 GHB =       9.9040E-04                   GHB =       9.9040E-04     GHB-1                            
                 RCH =           0.1717                   RCH =           0.0000     RCH-1                            

           TOTAL OUT =           0.3307             TOTAL OUT =       5.0102E-02

            IN - OUT =       7.9881E-14              IN - OUT =       1.5055E-13

 PERCENT DISCREPANCY =           0.00     PERCENT DISCREPANCY =           0.00




         TIME SUMMARY AT END OF TIME STEP    1 IN STRESS PERIOD   13
                    SECONDS     MINUTES      HOURS       DAYS        YEARS
                    -----------------------------------------------------------
   TIME STEP LENGTH  86400.      1440.0      24.000      1.0000     2.73785E-03
 STRESS PERIOD TIME  86400.      1440.0      24.000      1.0000     2.73785E-03
         TOTAL TIME 1.12320E+06  18720.      312.00      13.000     3.55921E-02


end timestep


start timestep kper="14" kstp="1" mode="normal"


 OUTPUT CONTROL FOR STRESS PERIOD 14 IS REPEATED USING SETTINGS FROM A PREVIOUS STRESS PERIOD.
 UBDSV1 SAVING           STO-SS ON UNIT   1019 AT TIME STEP      1, STRESS PERIOD     14
 UBDSV1 SAVING     FLOW-JA-FACE ON UNIT   1019 AT TIME STEP      1, STRESS PERIOD     14
 UBDSV06 SAVING         DATA-SAT IN MODEL MODEL            PACKAGE NPF             CONNECTED TO MODEL MODEL            PACKAGE NPF              ON UNIT   1019 AT TIME STEP      1, STRESS PERIOD     14
 UBDSV06 SAVING              DRN IN MODEL MODEL            PACKAGE MODEL           CONNECTED TO MODEL MODEL            PACKAGE SOF              ON UNIT   1019 AT TIME STEP      1, STRESS PERIOD     14
 UBDSV06 SAVING              GHB IN MODEL MODEL            PACKAGE MODEL           CONNECTED TO MODEL MODEL            PACKAGE GHB-1            ON UNIT   1019 AT TIME STEP      1, STRESS PERIOD     14

 DRN PACKAGE (SOF) FLOW RATES   PERIOD     14   STEP        1
 -----------------------------------------------
   NUMBER   CELLID                    RATE      
 -----------------------------------------------
     1      (1,1,1)               0.0000000     
 -----------------------------------------------




 GHB PACKAGE (GHB-1) FLOW RATES   PERIOD     14   STEP        1
 -----------------------------------------------
   NUMBER   CELLID                    RATE      
 -----------------------------------------------
     1      (5,1,1)              -2.86942385E-03
 -----------------------------------------------




 HEAD WILL BE SAVED ON UNIT 1018 AT END OF TIME STEP    1, STRESS PERIOD   14


  VOLUME BUDGET FOR ENTIRE MODEL AT END OF TIME STEP    1, STRESS PERIOD  14
  ---------------------------------------------------------------------------------------------------

     CUMULATIVE VOLUME      L**3       RATES FOR THIS TIME STEP      L**3/T          PACKAGE NAME    
     ------------------                 ------------------------                     ----------------

           IN:                                      IN:
           ---                                      ---
              STO-SS =           0.1543                STO-SS =           0.0000     STORAGE                          
                 WEL =           0.0000                   WEL =           0.0000     WEL-1                            
                 DRN =           0.0000                   DRN =           0.0000     SOF                              
                 GHB =       2.8082E-02                   GHB =           0.0000     GHB-1                            
                 RCH =           0.2104                   RCH =       6.2200E-02     RCH-1                            

            TOTAL IN =           0.3929              TOTAL IN =       6.2200E-02

          OUT:                                     OUT:
          ----                                     ----
              STO-SS =           0.2173                STO-SS =       5.9330E-02     STORAGE                          
                 WEL =           0.0000                   WEL =           0.0000     WEL-1                            
                 DRN =           0.0000                   DRN =           0.0000     SOF                              
                 GHB =       3.8598E-03                   GHB =       2.8694E-03     GHB-1                            
                 RCH =           0.1717                   RCH =           0.0000     RCH-1                            

           TOTAL OUT =           0.3929             TOTAL OUT =       6.2200E-02

            IN - OUT =       1.5743E-13              IN - OUT =       7.7473E-14

 PERCENT DISCREPANCY =           0.00     PERCENT DISCREPANCY =           0.00




         TIME SUMMARY AT END OF TIME STEP    1 IN STRESS PERIOD   14
                    SECONDS     MINUTES      HOURS       DAYS        YEARS
                    -----------------------------------------------------------
   TIME STEP LENGTH  86400.      1440.0      24.000      1.0000     2.73785E-03
 STRESS PERIOD TIME  86400.      1440.0      24.000      1.0000     2.73785E-03
         TOTAL TIME 1.20960E+06  20160.      336.00      14.000     3.83299E-02


end timestep


start timestep kper="15" kstp="1" mode="normal"


 OUTPUT CONTROL FOR STRESS PERIOD 15 IS REPEATED USING SETTINGS FROM A PREVIOUS STRESS PERIOD.
 UBDSV1 SAVING           STO-SS ON UNIT   1019 AT TIME STEP      1, STRESS PERIOD     15
 UBDSV1 SAVING     FLOW-JA-FACE ON UNIT   1019 AT TIME STEP      1, STRESS PERIOD     15
 UBDSV06 SAVING         DATA-SAT IN MODEL MODEL            PACKAGE NPF             CONNECTED TO MODEL MODEL            PACKAGE NPF              ON UNIT   1019 AT TIME STEP      1, STRESS PERIOD     15
 UBDSV06 SAVING              DRN IN MODEL MODEL            PACKAGE MODEL           CONNECTED TO MODEL MODEL            PACKAGE SOF              ON UNIT   1019 AT TIME STEP      1, STRESS PERIOD     15
 UBDSV06 SAVING              GHB IN MODEL MODEL            PACKAGE MODEL           CONNECTED TO MODEL MODEL            PACKAGE GHB-1            ON UNIT   1019 AT TIME STEP      1, STRESS PERIOD     15

 DRN PACKAGE (SOF) FLOW RATES   PERIOD     15   STEP        1
 -----------------------------------------------
   NUMBER   CELLID                    RATE      
 -----------------------------------------------
     1      (1,1,1)               0.0000000     
 -----------------------------------------------




 GHB PACKAGE (GHB-1) FLOW RATES   PERIOD     15   STEP        1
 -----------------------------------------------
   NUMBER   CELLID                    RATE      
 -----------------------------------------------
     1      (5,1,1)              -5.16094547E-03
 -----------------------------------------------




 HEAD WILL BE SAVED ON UNIT 1018 AT END OF TIME STEP    1, STRESS PERIOD   15


  VOLUME BUDGET FOR ENTIRE MODEL AT END OF TIME STEP    1, STRESS PERIOD  15
  ---------------------------------------------------------------------------------------------------

     CUMULATIVE VOLUME      L**3       RATES FOR THIS TIME STEP      L**3/T          PACKAGE NAME    
     ------------------                 ------------------------                     ----------------

           IN:                                      IN:
           ---                                      ---
              STO-SS =           0.1543                STO-SS =           0.0000     STORAGE                          
                 WEL =           0.0000                   WEL =           0.0000     WEL-1                            
                 DRN =           0.0000                   DRN =           0.0000     SOF                              
                 GHB =       2.8082E-02                   GHB =           0.0000     GHB-1                            
                 RCH =           0.2856                   RCH =       7.5187E-02     RCH-1                            

            TOTAL IN =           0.4680              TOTAL IN =       7.5187E-02

          OUT:                                     OUT:
          ----                                     ----
              STO-SS =           0.2873                STO-SS =       7.0026E-02     STORAGE                          
                 WEL =           0.0000                   WEL =           0.0000     WEL-1                            
                 DRN =           0.0000                   DRN =           0.0000     SOF                              
                 GHB =       9.0208E-03                   GHB =       5.1609E-03     GHB-1                            
                 RCH =           0.1717                   RCH =           0.0000     RCH-1                            

           TOTAL OUT =           0.4680             TOTAL OUT =       7.5187E-02

            IN - OUT =       2.8128E-13              IN - OUT =       1.2383E-13

 PERCENT DISCREPANCY =           0.00     PERCENT DISCREPANCY =           0.00




         TIME SUMMARY AT END OF TIME STEP    1 IN STRESS PERIOD   15
                    SECONDS     MINUTES      HOURS       DAYS        YEARS
                    -----------------------------------------------------------
   TIME STEP LENGTH  86400.      1440.0      24.000      1.0000     2.73785E-03
 STRESS PERIOD TIME  86400.      1440.0      24.000      1.0000     2.73785E-03
         TOTAL TIME 1.29600E+06  21600.      360.00      15.000     4.10678E-02


end timestep


start timestep kper="16" kstp="1" mode="normal"


 OUTPUT CONTROL FOR STRESS PERIOD 16 IS REPEATED USING SETTINGS FROM A PREVIOUS STRESS PERIOD.
 UBDSV1 SAVING           STO-SS ON UNIT   1019 AT TIME STEP      1, STRESS PERIOD     16
 UBDSV1 SAVING     FLOW-JA-FACE ON UNIT   1019 AT TIME STEP      1, STRESS PERIOD     16
 UBDSV06 SAVING         DATA-SAT IN MODEL MODEL            PACKAGE NPF             CONNECTED TO MODEL MODEL            PACKAGE NPF              ON UNIT   1019 AT TIME STEP      1, STRESS PERIOD     16
 UBDSV06 SAVING              DRN IN MODEL MODEL            PACKAGE MODEL           CONNECTED TO MODEL MODEL            PACKAGE SOF              ON UNIT   1019 AT TIME STEP      1, STRESS PERIOD     16
 UBDSV06 SAVING              GHB IN MODEL MODEL            PACKAGE MODEL           CONNECTED TO MODEL MODEL            PACKAGE GHB-1            ON UNIT   1019 AT TIME STEP      1, STRESS PERIOD     16

 DRN PACKAGE (SOF) FLOW RATES   PERIOD     16   STEP        1
 -----------------------------------------------
   NUMBER   CELLID                    RATE      
 -----------------------------------------------
     1      (1,1,1)               0.0000000     
 -----------------------------------------------




 GHB PACKAGE (GHB-1) FLOW RATES   PERIOD     16   STEP        1
 -----------------------------------------------
   NUMBER   CELLID                    RATE      
 -----------------------------------------------
     1      (5,1,1)              -7.93298669E-03
 -----------------------------------------------




 HEAD WILL BE SAVED ON UNIT 1018 AT END OF TIME STEP    1, STRESS PERIOD   16


  VOLUME BUDGET FOR ENTIRE MODEL AT END OF TIME STEP    1, STRESS PERIOD  16
  ---------------------------------------------------------------------------------------------------

     CUMULATIVE VOLUME      L**3       RATES FOR THIS TIME STEP      L**3/T          PACKAGE NAME    
     ------------------                 ------------------------                     ----------------

           IN:                                      IN:
           ---                                      ---
              STO-SS =           0.1543                STO-SS =           0.0000     STORAGE                          
                 WEL =           0.0000                   WEL =           0.0000     WEL-1                            
                 DRN =           0.0000                   DRN =           0.0000     SOF                              
                 GHB =       2.8082E-02                   GHB =           0.0000     GHB-1                            
                 RCH =           0.3754                   RCH =       8.9816E-02     RCH-1                            

            TOTAL IN =           0.5579              TOTAL IN =       8.9816E-02

          OUT:                                     OUT:
          ----                                     ----
              STO-SS =           0.3692                STO-SS =       8.1883E-02     STORAGE                          
                 WEL =           0.0000                   WEL =           0.0000     WEL-1                            
                 DRN =           0.0000                   DRN =           0.0000     SOF                              
                 GHB =       1.6954E-02                   GHB =       7.9330E-03     GHB-1                            
                 RCH =           0.1717                   RCH =           0.0000     RCH-1                            

           TOTAL OUT =           0.5579             TOTAL OUT =       8.9816E-02

            IN - OUT =       3.4428E-13              IN - OUT =       6.3075E-14

 PERCENT DISCREPANCY =           0.00     PERCENT DISCREPANCY =           0.00




         TIME SUMMARY AT END OF TIME STEP    1 IN STRESS PERIOD   16
                    SECONDS     MINUTES      HOURS       DAYS        YEARS
                    -----------------------------------------------------------
   TIME STEP LENGTH  86400.      1440.0      24.000      1.0000     2.73785E-03
 STRESS PERIOD TIME  86400.      1440.0      24.000      1.0000     2.73785E-03
         TOTAL TIME 1.38240E+06  23040.      384.00      16.000     4.38056E-02


end timestep


start timestep kper="17" kstp="1" mode="normal"


 OUTPUT CONTROL FOR STRESS PERIOD 17 IS REPEATED USING SETTINGS FROM A PREVIOUS STRESS PERIOD.
 UBDSV1 SAVING           STO-SS ON UNIT   1019 AT TIME STEP      1, STRESS PERIOD     17
 UBDSV1 SAVING     FLOW-JA-FACE ON UNIT   1019 AT TIME STEP      1, STRESS PERIOD     17
 UBDSV06 SAVING         DATA-SAT IN MODEL MODEL            PACKAGE NPF             CONNECTED TO MODEL MODEL            PACKAGE NPF              ON UNIT   1019 AT TIME STEP      1, STRESS PERIOD     17
 UBDSV06 SAVING              DRN IN MODEL MODEL            PACKAGE MODEL           CONNECTED TO MODEL MODEL            PACKAGE SOF              ON UNIT   1019 AT TIME STEP      1, STRESS PERIOD     17
 UBDSV06 SAVING              GHB IN MODEL MODEL            PACKAGE MODEL           CONNECTED TO MODEL MODEL            PACKAGE GHB-1            ON UNIT   1019 AT TIME STEP      1, STRESS PERIOD     17

 DRN PACKAGE (SOF) FLOW RATES   PERIOD     17   STEP        1
 -----------------------------------------------
   NUMBER   CELLID                    RATE      
 -----------------------------------------------
     1      (1,1,1)               0.0000000     
 -----------------------------------------------




 GHB PACKAGE (GHB-1) FLOW RATES   PERIOD     17   STEP        1
 -----------------------------------------------
   NUMBER   CELLID                    RATE      
 -----------------------------------------------
     1      (5,1,1)              -1.14372764E-02
 -----------------------------------------------




 HEAD WILL BE SAVED ON UNIT 1018 AT END OF TIME STEP    1, STRESS PERIOD   17


  VOLUME BUDGET FOR ENTIRE MODEL AT END OF TIME STEP    1, STRESS PERIOD  17
  ---------------------------------------------------------------------------------------------------

     CUMULATIVE VOLUME      L**3       RATES FOR THIS TIME STEP      L**3/T          PACKAGE NAME    
     ------------------                 ------------------------                     ----------------

           IN:                                      IN:
           ---                                      ---
              STO-SS =           0.1543                STO-SS =           0.0000     STORAGE                          
                 WEL =           0.0000                   WEL =           0.0000     WEL-1                            
                 DRN =           0.0000                   DRN =           0.0000     SOF                              
                 GHB =       2.8082E-02                   GHB =           0.0000     GHB-1                            
                 RCH =           0.4805                   RCH =           0.1051     RCH-1                            

            TOTAL IN =           0.6629              TOTAL IN =           0.1051

          OUT:                                     OUT:
          ----                                     ----
              STO-SS =           0.4628                STO-SS =       9.3631E-02     STORAGE                          
                 WEL =           0.0000                   WEL =           0.0000     WEL-1                            
                 DRN =           0.0000                   DRN =           0.0000     SOF                              
                 GHB =       2.8391E-02                   GHB =       1.1437E-02     GHB-1                            
                 RCH =           0.1717                   RCH =           0.0000     RCH-1                            

           TOTAL OUT =           0.6629             TOTAL OUT =           0.1051

            IN - OUT =       4.4831E-13              IN - OUT =       1.0396E-13

 PERCENT DISCREPANCY =           0.00     PERCENT DISCREPANCY =           0.00




         TIME SUMMARY AT END OF TIME STEP    1 IN STRESS PERIOD   17
[...]




 GHB PACKAGE (GHB-1) FLOW RATES   PERIOD    496   STEP        1
 -----------------------------------------------
   NUMBER   CELLID                    RATE      
 -----------------------------------------------
     1      (5,1,1)              -7.39724175E-03
 -----------------------------------------------




 HEAD WILL BE SAVED ON UNIT 1018 AT END OF TIME STEP    1, STRESS PERIOD  496


  VOLUME BUDGET FOR ENTIRE MODEL AT END OF TIME STEP    1, STRESS PERIOD 496
  ---------------------------------------------------------------------------------------------------

     CUMULATIVE VOLUME      L**3       RATES FOR THIS TIME STEP      L**3/T          PACKAGE NAME    
     ------------------                 ------------------------                     ----------------

           IN:                                      IN:
           ---                                      ---
              STO-SS =          32.9314                STO-SS =       2.9120E-03     STORAGE                          
                 WEL =           0.0000                   WEL =           0.0000     WEL-1                            
                 DRN =           0.0000                   DRN =           0.0000     SOF                              
                 GHB =       2.8082E-02                   GHB =           0.0000     GHB-1                            
                 RCH =          39.8512                   RCH =       4.4853E-03     RCH-1                            

            TOTAL IN =          72.8107              TOTAL IN =       7.3972E-03

          OUT:                                     OUT:
          ----                                     ----
              STO-SS =          23.0456                STO-SS =           0.0000     STORAGE                          
                 WEL =           0.0000                   WEL =           0.0000     WEL-1                            
                 DRN =           0.0000                   DRN =           0.0000     SOF                              
                 GHB =          49.5748                   GHB =       7.3972E-03     GHB-1                            
                 RCH =           0.1903                   RCH =           0.0000     RCH-1                            

           TOTAL OUT =          72.8107             TOTAL OUT =       7.3972E-03

            IN - OUT =      -1.3631E-09              IN - OUT =       3.7192E-15

 PERCENT DISCREPANCY =          -0.00     PERCENT DISCREPANCY =           0.00




         TIME SUMMARY AT END OF TIME STEP    1 IN STRESS PERIOD  496
                    SECONDS     MINUTES      HOURS       DAYS        YEARS
                    -----------------------------------------------------------
   TIME STEP LENGTH  86400.      1440.0      24.000      1.0000     2.73785E-03
 STRESS PERIOD TIME  86400.      1440.0      24.000      1.0000     2.73785E-03
         TOTAL TIME 4.28544E+07 7.14240E+05  11904.      496.00      1.3580    


end timestep


start timestep kper="497" kstp="1" mode="normal"


 OUTPUT CONTROL FOR STRESS PERIOD 497 IS REPEATED USING SETTINGS FROM A PREVIOUS STRESS PERIOD.
 UBDSV1 SAVING           STO-SS ON UNIT   1019 AT TIME STEP      1, STRESS PERIOD    497
 UBDSV1 SAVING     FLOW-JA-FACE ON UNIT   1019 AT TIME STEP      1, STRESS PERIOD    497
 UBDSV06 SAVING         DATA-SAT IN MODEL MODEL            PACKAGE NPF             CONNECTED TO MODEL MODEL            PACKAGE NPF              ON UNIT   1019 AT TIME STEP      1, STRESS PERIOD    497
 UBDSV06 SAVING              DRN IN MODEL MODEL            PACKAGE MODEL           CONNECTED TO MODEL MODEL            PACKAGE SOF              ON UNIT   1019 AT TIME STEP      1, STRESS PERIOD    497
 UBDSV06 SAVING              GHB IN MODEL MODEL            PACKAGE MODEL           CONNECTED TO MODEL MODEL            PACKAGE GHB-1            ON UNIT   1019 AT TIME STEP      1, STRESS PERIOD    497

 DRN PACKAGE (SOF) FLOW RATES   PERIOD    497   STEP        1
 -----------------------------------------------
   NUMBER   CELLID                    RATE      
 -----------------------------------------------
     1      (1,1,1)               0.0000000     
 -----------------------------------------------




 GHB PACKAGE (GHB-1) FLOW RATES   PERIOD    497   STEP        1
 -----------------------------------------------
   NUMBER   CELLID                    RATE      
 -----------------------------------------------
     1      (5,1,1)              -7.32235945E-03
 -----------------------------------------------




 HEAD WILL BE SAVED ON UNIT 1018 AT END OF TIME STEP    1, STRESS PERIOD  497


  VOLUME BUDGET FOR ENTIRE MODEL AT END OF TIME STEP    1, STRESS PERIOD 497
  ---------------------------------------------------------------------------------------------------

     CUMULATIVE VOLUME      L**3       RATES FOR THIS TIME STEP      L**3/T          PACKAGE NAME    
     ------------------                 ------------------------                     ----------------

           IN:                                      IN:
           ---                                      ---
              STO-SS =          32.9343                STO-SS =       2.8834E-03     STORAGE                          
                 WEL =           0.0000                   WEL =           0.0000     WEL-1                            
                 DRN =           0.0000                   DRN =           0.0000     SOF                              
                 GHB =       2.8082E-02                   GHB =           0.0000     GHB-1                            
                 RCH =          39.8557                   RCH =       4.4389E-03     RCH-1                            

            TOTAL IN =          72.8181              TOTAL IN =       7.3224E-03

          OUT:                                     OUT:
          ----                                     ----
              STO-SS =          23.0456                STO-SS =           0.0000     STORAGE                          
                 WEL =           0.0000                   WEL =           0.0000     WEL-1                            
                 DRN =           0.0000                   DRN =           0.0000     SOF                              
                 GHB =          49.5821                   GHB =       7.3224E-03     GHB-1                            
                 RCH =           0.1903                   RCH =           0.0000     RCH-1                            

           TOTAL OUT =          72.8181             TOTAL OUT =       7.3224E-03

            IN - OUT =      -1.3631E-09              IN - OUT =      -5.4540E-14

 PERCENT DISCREPANCY =          -0.00     PERCENT DISCREPANCY =          -0.00




         TIME SUMMARY AT END OF TIME STEP    1 IN STRESS PERIOD  497
                    SECONDS     MINUTES      HOURS       DAYS        YEARS
                    -----------------------------------------------------------
   TIME STEP LENGTH  86400.      1440.0      24.000      1.0000     2.73785E-03
 STRESS PERIOD TIME  86400.      1440.0      24.000      1.0000     2.73785E-03
         TOTAL TIME 4.29408E+07 7.15680E+05  11928.      497.00      1.3607    


end timestep


start timestep kper="498" kstp="1" mode="normal"


 OUTPUT CONTROL FOR STRESS PERIOD 498 IS REPEATED USING SETTINGS FROM A PREVIOUS STRESS PERIOD.
 UBDSV1 SAVING           STO-SS ON UNIT   1019 AT TIME STEP      1, STRESS PERIOD    498
 UBDSV1 SAVING     FLOW-JA-FACE ON UNIT   1019 AT TIME STEP      1, STRESS PERIOD    498
 UBDSV06 SAVING         DATA-SAT IN MODEL MODEL            PACKAGE NPF             CONNECTED TO MODEL MODEL            PACKAGE NPF              ON UNIT   1019 AT TIME STEP      1, STRESS PERIOD    498
 UBDSV06 SAVING              DRN IN MODEL MODEL            PACKAGE MODEL           CONNECTED TO MODEL MODEL            PACKAGE SOF              ON UNIT   1019 AT TIME STEP      1, STRESS PERIOD    498
 UBDSV06 SAVING              GHB IN MODEL MODEL            PACKAGE MODEL           CONNECTED TO MODEL MODEL            PACKAGE GHB-1            ON UNIT   1019 AT TIME STEP      1, STRESS PERIOD    498

 DRN PACKAGE (SOF) FLOW RATES   PERIOD    498   STEP        1
 -----------------------------------------------
   NUMBER   CELLID                    RATE      
 -----------------------------------------------
     1      (1,1,1)               0.0000000     
 -----------------------------------------------




 GHB PACKAGE (GHB-1) FLOW RATES   PERIOD    498   STEP        1
 -----------------------------------------------
   NUMBER   CELLID                    RATE      
 -----------------------------------------------
     1      (5,1,1)              -7.24828240E-03
 -----------------------------------------------




 HEAD WILL BE SAVED ON UNIT 1018 AT END OF TIME STEP    1, STRESS PERIOD  498


  VOLUME BUDGET FOR ENTIRE MODEL AT END OF TIME STEP    1, STRESS PERIOD 498
  ---------------------------------------------------------------------------------------------------

     CUMULATIVE VOLUME      L**3       RATES FOR THIS TIME STEP      L**3/T          PACKAGE NAME    
     ------------------                 ------------------------                     ----------------

           IN:                                      IN:
           ---                                      ---
              STO-SS =          32.9372                STO-SS =       2.8548E-03     STORAGE                          
                 WEL =           0.0000                   WEL =           0.0000     WEL-1                            
                 DRN =           0.0000                   DRN =           0.0000     SOF                              
                 GHB =       2.8082E-02                   GHB =           0.0000     GHB-1                            
                 RCH =          39.8600                   RCH =       4.3934E-03     RCH-1                            

            TOTAL IN =          72.8253              TOTAL IN =       7.2483E-03

          OUT:                                     OUT:
          ----                                     ----
              STO-SS =          23.0456                STO-SS =           0.0000     STORAGE                          
                 WEL =           0.0000                   WEL =           0.0000     WEL-1                            
                 DRN =           0.0000                   DRN =           0.0000     SOF                              
                 GHB =          49.5894                   GHB =       7.2483E-03     GHB-1                            
                 RCH =           0.1903                   RCH =           0.0000     RCH-1                            

           TOTAL OUT =          72.8253             TOTAL OUT =       7.2483E-03

            IN - OUT =      -1.3632E-09              IN - OUT =      -9.9448E-14

 PERCENT DISCREPANCY =          -0.00     PERCENT DISCREPANCY =          -0.00




         TIME SUMMARY AT END OF TIME STEP    1 IN STRESS PERIOD  498
                    SECONDS     MINUTES      HOURS       DAYS        YEARS
                    -----------------------------------------------------------
   TIME STEP LENGTH  86400.      1440.0      24.000      1.0000     2.73785E-03
 STRESS PERIOD TIME  86400.      1440.0      24.000      1.0000     2.73785E-03
         TOTAL TIME 4.30272E+07 7.17120E+05  11952.      498.00      1.3634    


end timestep


start timestep kper="499" kstp="1" mode="normal"


 OUTPUT CONTROL FOR STRESS PERIOD 499 IS REPEATED USING SETTINGS FROM A PREVIOUS STRESS PERIOD.
 UBDSV1 SAVING           STO-SS ON UNIT   1019 AT TIME STEP      1, STRESS PERIOD    499
 UBDSV1 SAVING     FLOW-JA-FACE ON UNIT   1019 AT TIME STEP      1, STRESS PERIOD    499
 UBDSV06 SAVING         DATA-SAT IN MODEL MODEL            PACKAGE NPF             CONNECTED TO MODEL MODEL            PACKAGE NPF              ON UNIT   1019 AT TIME STEP      1, STRESS PERIOD    499
 UBDSV06 SAVING              DRN IN MODEL MODEL            PACKAGE MODEL           CONNECTED TO MODEL MODEL            PACKAGE SOF              ON UNIT   1019 AT TIME STEP      1, STRESS PERIOD    499
 UBDSV06 SAVING              GHB IN MODEL MODEL            PACKAGE MODEL           CONNECTED TO MODEL MODEL            PACKAGE GHB-1            ON UNIT   1019 AT TIME STEP      1, STRESS PERIOD    499

 DRN PACKAGE (SOF) FLOW RATES   PERIOD    499   STEP        1
 -----------------------------------------------
   NUMBER   CELLID                    RATE      
 -----------------------------------------------
     1      (1,1,1)               0.0000000     
 -----------------------------------------------




 GHB PACKAGE (GHB-1) FLOW RATES   PERIOD    499   STEP        1
 -----------------------------------------------
   NUMBER   CELLID                    RATE      
 -----------------------------------------------
     1      (5,1,1)              -7.17501144E-03
 -----------------------------------------------




 HEAD WILL BE SAVED ON UNIT 1018 AT END OF TIME STEP    1, STRESS PERIOD  499


  VOLUME BUDGET FOR ENTIRE MODEL AT END OF TIME STEP    1, STRESS PERIOD 499
  ---------------------------------------------------------------------------------------------------

     CUMULATIVE VOLUME      L**3       RATES FOR THIS TIME STEP      L**3/T          PACKAGE NAME    
     ------------------                 ------------------------                     ----------------

           IN:                                      IN:
           ---                                      ---
              STO-SS =          32.9400                STO-SS =       2.8262E-03     STORAGE                          
                 WEL =           0.0000                   WEL =           0.0000     WEL-1                            
                 DRN =           0.0000                   DRN =           0.0000     SOF                              
                 GHB =       2.8082E-02                   GHB =           0.0000     GHB-1                            
                 RCH =          39.8644                   RCH =       4.3488E-03     RCH-1                            

            TOTAL IN =          72.8325              TOTAL IN =       7.1750E-03

          OUT:                                     OUT:
          ----                                     ----
              STO-SS =          23.0456                STO-SS =           0.0000     STORAGE                          
                 WEL =           0.0000                   WEL =           0.0000     WEL-1                            
                 DRN =           0.0000                   DRN =           0.0000     SOF                              
                 GHB =          49.5965                   GHB =       7.1750E-03     GHB-1                            
                 RCH =           0.1903                   RCH =           0.0000     RCH-1                            

           TOTAL OUT =          72.8325             TOTAL OUT =       7.1750E-03

            IN - OUT =      -1.3633E-09              IN - OUT =      -5.8370E-14

 PERCENT DISCREPANCY =          -0.00     PERCENT DISCREPANCY =          -0.00




         TIME SUMMARY AT END OF TIME STEP    1 IN STRESS PERIOD  499
                    SECONDS     MINUTES      HOURS       DAYS        YEARS
                    -----------------------------------------------------------
   TIME STEP LENGTH  86400.      1440.0      24.000      1.0000     2.73785E-03
 STRESS PERIOD TIME  86400.      1440.0      24.000      1.0000     2.73785E-03
         TOTAL TIME 4.31136E+07 7.18560E+05  11976.      499.00      1.3662    


end timestep


start timestep kper="500" kstp="1" mode="normal"


 OUTPUT CONTROL FOR STRESS PERIOD 500 IS REPEATED USING SETTINGS FROM A PREVIOUS STRESS PERIOD.
 UBDSV1 SAVING           STO-SS ON UNIT   1019 AT TIME STEP      1, STRESS PERIOD    500
 UBDSV1 SAVING     FLOW-JA-FACE ON UNIT   1019 AT TIME STEP      1, STRESS PERIOD    500
 UBDSV06 SAVING         DATA-SAT IN MODEL MODEL            PACKAGE NPF             CONNECTED TO MODEL MODEL            PACKAGE NPF              ON UNIT   1019 AT TIME STEP      1, STRESS PERIOD    500
 UBDSV06 SAVING              DRN IN MODEL MODEL            PACKAGE MODEL           CONNECTED TO MODEL MODEL            PACKAGE SOF              ON UNIT   1019 AT TIME STEP      1, STRESS PERIOD    500
 UBDSV06 SAVING              GHB IN MODEL MODEL            PACKAGE MODEL           CONNECTED TO MODEL MODEL            PACKAGE GHB-1            ON UNIT   1019 AT TIME STEP      1, STRESS PERIOD    500

 DRN PACKAGE (SOF) FLOW RATES   PERIOD    500   STEP        1
 -----------------------------------------------
   NUMBER   CELLID                    RATE      
 -----------------------------------------------
     1      (1,1,1)               0.0000000     
 -----------------------------------------------




 GHB PACKAGE (GHB-1) FLOW RATES   PERIOD    500   STEP        1
 -----------------------------------------------
   NUMBER   CELLID                    RATE      
 -----------------------------------------------
     1      (5,1,1)              -7.10254459E-03
 -----------------------------------------------




 HEAD WILL BE SAVED ON UNIT 1018 AT END OF TIME STEP    1, STRESS PERIOD  500


  VOLUME BUDGET FOR ENTIRE MODEL AT END OF TIME STEP    1, STRESS PERIOD 500
  ---------------------------------------------------------------------------------------------------

     CUMULATIVE VOLUME      L**3       RATES FOR THIS TIME STEP      L**3/T          PACKAGE NAME    
     ------------------                 ------------------------                     ----------------

           IN:                                      IN:
           ---                                      ---
              STO-SS =          32.9428                STO-SS =       2.7975E-03     STORAGE                          
                 WEL =           0.0000                   WEL =           0.0000     WEL-1                            
                 DRN =           0.0000                   DRN =           0.0000     SOF                              
                 GHB =       2.8082E-02                   GHB =           0.0000     GHB-1                            
                 RCH =          39.8687                   RCH =       4.3051E-03     RCH-1                            

            TOTAL IN =          72.8396              TOTAL IN =       7.1025E-03

          OUT:                                     OUT:
          ----                                     ----
              STO-SS =          23.0456                STO-SS =           0.0000     STORAGE                          
                 WEL =           0.0000                   WEL =           0.0000     WEL-1                            
                 DRN =           0.0000                   DRN =           0.0000     SOF                              
                 GHB =          49.6036                   GHB =       7.1025E-03     GHB-1                            
                 RCH =           0.1903                   RCH =           0.0000     RCH-1                            

           TOTAL OUT =          72.8396             TOTAL OUT =       7.1025E-03

            IN - OUT =      -1.3633E-09              IN - OUT =      -1.8319E-15

 PERCENT DISCREPANCY =          -0.00     PERCENT DISCREPANCY =          -0.00




         TIME SUMMARY AT END OF TIME STEP    1 IN STRESS PERIOD  500
                    SECONDS     MINUTES      HOURS       DAYS        YEARS
                    -----------------------------------------------------------
   TIME STEP LENGTH  86400.      1440.0      24.000      1.0000     2.73785E-03
 STRESS PERIOD TIME  86400.      1440.0      24.000      1.0000     2.73785E-03
         TOTAL TIME 4.32000E+07 7.20000E+05  12000.      500.00      1.3689    


end timestep

