                                   MODFLOW 6
                U.S. GEOLOGICAL SURVEY MODULAR HYDROLOGIC MODEL
                          GROUNDWATER FLOW MODEL (GWF)
                            VERSION 6.5.0 05/23/2024

   MODFLOW 6 compiled Jun 14 2024 13:48:17 with Intel(R) Fortran Intel(R) 64
  Compiler Classic for applications running on Intel(R) 64, Version 2021.12.0
                             Build 20240222_000000

This software has been approved for release by the U.S. Geological 
Survey (USGS). Although the software has been subjected to rigorous 
review, the USGS reserves the right to update the software as needed 
pursuant to further analysis and review. No warranty, expressed or 
implied, is made by the USGS or the U.S. Government as to the 
functionality of the software and related material nor shall the 
fact of release constitute any such warranty. Furthermore, the 
software is released on condition that neither the USGS nor the U.S. 
Government shall be held liable for any damages resulting from its 
authorized or unauthorized use. Also refer to the USGS Water 
Resources Software User Rights Notice for complete use, copyright, 
and distribution information.


As a work of the United States Government, this USGS product is 
in the public domain within the United States. You can copy, 
modify, distribute, and perform the work, even for commercial 
purposes, all without asking permission. Additionally, USGS 
waives copyright and related rights in the work worldwide 
through CC0 1.0 Universal Public Domain Dedication 
(https://creativecommons.org/publicdomain/zero/1.0/).

The following GNU Lesser General Public License (LGPL) libraries
are used in this USGS product:

    SPARSKIT version 2.0
      ilut, luson, and qsplit 
      (https://www-users.cse.umn.edu/~saad/software/SPARSKIT/)

    RCM - Reverse Cuthill McKee Ordering
      (https://people.math.sc.edu/Burkardt/f_src/rcm/rcm.html)

    BLAS - Basic Linear Algebra Subprograms Level 1
      (https://people.math.sc.edu/Burkardt/f_src/blas1_d/blas1_d.html)

    SPARSEKIT - Sparse Matrix Utility Package
      amux, dperm, dvperm, rperm, and cperm
      (https://people.sc.fsu.edu/~jburkardt/f77_src/sparsekit/sparsekit.html)

The following BSD-3 License libraries are used in this USGS product:

    Modern Fortran DAG Library
      Copyright (c) 2018, Jacob Williams
      All rights reserved.
      (https://github.com/jacobwilliams/daglib)

MODFLOW 6 compiler options: /nologo /O2 /fpp /warn:declarations /warn:unused
/fpe:0 /module:obj_temp\mf6core\x64\Release\
/object:obj_temp\mf6core\x64\Release\
/Fdobj_temp\mf6core\x64\Release\vc170.pdb /libs:static /threads /c
"/Qlocation,link,C:\Program Files\Microsoft Visual
Studio\2022\Community\VC\Tools\MSVC\14.40.33807\bin\HostX64\x64" /Qm64

System command used to initiate simulation:
d:\werkmap\LHM_coupling\.pixi\envs\default\python.exe d:\werkmap\prototype_metaswap\MegaSWAP\coupled_simulation.py

MODFLOW was compiled using uniform precision.

Real Variables
  KIND: 8
  TINY (smallest non-zero value):    2.225074-308
  HUGE (largest value):    1.797693+308
  PRECISION: 15
  SIZE IN BITS: 64

Integer Variables
  KIND: 4
  HUGE (largest value): 2147483647
  SIZE IN BITS: 32

Long Integer Variables
  KIND: 8
  HUGE (largest value): 9223372036854775807
  SIZE IN BITS: 64

Logical Variables
  KIND: 4
  SIZE IN BITS: 32
 
 NAMEFILE OPTIONS:
 END NAMEFILE OPTIONS:

 DIS -- STRUCTURED GRID DISCRETIZATION PACKAGE, VERSION 2 : 3/27/2014 - INPUT READ FROM MEMPATH: __INPUT__/MODEL/DIS                               


 NPF -- NODE PROPERTY FLOW PACKAGE, VERSION 1, 3/30/2015 INPUT READ FROM MEMPATH: __INPUT__/MODEL/NPF                               


 IC -- Initial Conditions Package, Version 8, 3/28/2015 input read from mempath: __INPUT__/MODEL/IC                                


 Setting Discretization Options
    Model length unit [0=UND, 1=FEET, 2=METERS, 3=CENTIMETERS] set as 2
 End Setting Discretization Options

 Setting Discretization Dimensions
    NLAY = 5
    NROW = 1
    NCOL = 1
 End Setting Discretization Dimensions

 Setting Discretization Griddata
    DELR set from input file
    DELC set from input file
    TOP set from input file
    BOTM set from input file
 End Setting Discretization Griddata

 Setting NPF Options
    Cell-by-cell flow information will be saved to binary file whenever ICBCFL is not zero.
    Saturation will be written to DATA-SAT in budget file when requested.
 End Setting NPF Options

 Setting NPF Griddata
    ICELLTYPE set from input file
    K set from input file
    K33 not provided.  Setting K33 = K.
    K22 not provided.  Setting K22 = K.
 End Setting NPF Griddata


 RIV   -- RIV PACKAGE, VERSION 8, 2/22/2014 INPUT READ FROM MEMPATH: __INPUT__/MODEL/RIV-1                             

 PROCESSING RIV BASE OPTIONS
 END OF RIV BASE OPTIONS

 PROCESSING RIV OPTIONS
 END OF RIV OPTIONS

 PROCESSING RIV BASE DIMENSIONS
    MAXBOUND =       1
 END OF RIV BASE DIMENSIONS

 RCH   -- RCH PACKAGE, VERSION 8, 2/22/2014 INPUT READ FROM MEMPATH: __INPUT__/MODEL/RCH-1                             

 PROCESSING RCH BASE OPTIONS
 END OF RCH BASE OPTIONS

 PROCESSING RCH OPTIONS
 END OF RCH OPTIONS

 PROCESSING RCH BASE DIMENSIONS
    MAXBOUND =       1
 END OF RCH BASE DIMENSIONS
    STRT set from input file

 STO -- STORAGE PACKAGE, VERSION 1, 5/19/2014 INPUT READ FROM UNIT 1007


 PROCESSING STORAGE OPTIONS
    CELL-BY-CELL FLOW INFORMATION WILL BE SAVED TO BINARY FILE WHENEVER ICBCFL IS NOT ZERO.
    STORAGECOEFFICIENT OPTION:
 Read storage coefficient rather than specific storage
 END OF STORAGE OPTIONS
 PROCESSING GRIDDATA

                 ICONVERT = 0

         SPECIFIC STORAGE =  0.2000000     FOR LAYER 1

         SPECIFIC STORAGE =  0.1000000E-02 FOR LAYER 2

         SPECIFIC STORAGE =  0.1000000E-02 FOR LAYER 3

         SPECIFIC STORAGE =  0.1000000E-02 FOR LAYER 4

         SPECIFIC STORAGE =  0.1000000E-02 FOR LAYER 5
 END PROCESSING GRIDDATA
    BINARY GRID INFORMATION WILL BE WRITTEN TO:
      UNIT NUMBER: 1015
      FILE NAME: model.dis.grb

 OPENED model.dis.grb
 FILE TYPE:DATA(BINARY)   UNIT 1015   STATUS:REPLACE             
 FORMAT:UNFORMATTED            ACCESS:STREAM              
 ACTION:READWRITE           

      THE LAST TIME STEP WILL BE PRINTED
      THE LAST TIME STEP WILL BE PRINTED

 PROCESSING OC OPTIONS

    HEAD INFORMATION WILL BE WRITTEN TO:
      UNIT NUMBER: 1016
      FILE NAME: flow.hds

 OPENED flow.hds
 FILE TYPE:DATA(BINARY)   UNIT 1016   STATUS:REPLACE             
 FORMAT:UNFORMATTED            ACCESS:STREAM              
 ACTION:READWRITE           

    BUDGET INFORMATION WILL BE WRITTEN TO:
      UNIT NUMBER: 1017
      FILE NAME: flow.cbc

 OPENED flow.cbc
 FILE TYPE:DATA(BINARY)   UNIT 1017   STATUS:REPLACE             
 FORMAT:UNFORMATTED            ACCESS:STREAM              
 ACTION:READWRITE           

 END OF OC OPTIONS

start timestep kper="1" kstp="1" mode="normal"


 BEGIN READING OUTPUT CONTROL FOR STRESS PERIOD 1
      ALL TIME STEPS WILL BE SAVED
      ALL TIME STEPS WILL BE SAVED

 END READING OUTPUT CONTROL FOR STRESS PERIOD 1


 PROCESSING STORAGE PERIOD DATA
 END PROCESSING STORAGE PERIOD DATA


 STRESS PERIOD 1 IS TRANSIENT

 UBDSV1 SAVING           STO-SS ON UNIT   1017 AT TIME STEP      1, STRESS PERIOD      1
 UBDSV1 SAVING     FLOW-JA-FACE ON UNIT   1017 AT TIME STEP      1, STRESS PERIOD      1
 UBDSV06 SAVING         DATA-SAT IN MODEL MODEL            PACKAGE NPF             CONNECTED TO MODEL MODEL            PACKAGE NPF              ON UNIT   1017 AT TIME STEP      1, STRESS PERIOD      1

 HEAD WILL BE SAVED ON UNIT 1016 AT END OF TIME STEP    1, STRESS PERIOD    1


  VOLUME BUDGET FOR ENTIRE MODEL AT END OF TIME STEP    1, STRESS PERIOD   1
  ---------------------------------------------------------------------------------------------------

     CUMULATIVE VOLUME      L**3       RATES FOR THIS TIME STEP      L**3/T          PACKAGE NAME    
     ------------------                 ------------------------                     ----------------

           IN:                                      IN:
           ---                                      ---
              STO-SS =           0.0000                STO-SS =           0.0000     STORAGE                          
                 RIV =           0.0000                   RIV =           0.0000     RIV-1                            
                 RCH =       1.3997E-02                   RCH =       1.3997E-02     RCH-1                            

            TOTAL IN =       1.3997E-02              TOTAL IN =       1.3997E-02

          OUT:                                     OUT:
          ----                                     ----
              STO-SS =       1.3997E-02                STO-SS =       1.3997E-02     STORAGE                          
                 RIV =           0.0000                   RIV =           0.0000     RIV-1                            
                 RCH =           0.0000                   RCH =           0.0000     RCH-1                            

           TOTAL OUT =       1.3997E-02             TOTAL OUT =       1.3997E-02

            IN - OUT =      -8.7173E-14              IN - OUT =      -8.7173E-14

 PERCENT DISCREPANCY =          -0.00     PERCENT DISCREPANCY =          -0.00




         TIME SUMMARY AT END OF TIME STEP    1 IN STRESS PERIOD    1
                    SECONDS     MINUTES      HOURS       DAYS        YEARS
                    -----------------------------------------------------------
   TIME STEP LENGTH  86400.      1440.0      24.000      1.0000     2.73785E-03
 STRESS PERIOD TIME  86400.      1440.0      24.000      1.0000     2.73785E-03
         TOTAL TIME  86400.      1440.0      24.000      1.0000     2.73785E-03


end timestep


start timestep kper="2" kstp="1" mode="normal"


 END OF FILE DETECTED IN OUTPUT CONTROL.
 CURRENT OUTPUT CONTROL SETTINGS WILL BE 
 REPEATED UNTIL THE END OF THE SIMULATION.

 OUTPUT CONTROL FOR STRESS PERIOD 2 IS REPEATED USING SETTINGS FROM A PREVIOUS STRESS PERIOD.


 STRESS PERIOD 2 IS TRANSIENT

 UBDSV1 SAVING           STO-SS ON UNIT   1017 AT TIME STEP      1, STRESS PERIOD      2
 UBDSV1 SAVING     FLOW-JA-FACE ON UNIT   1017 AT TIME STEP      1, STRESS PERIOD      2
 UBDSV06 SAVING         DATA-SAT IN MODEL MODEL            PACKAGE NPF             CONNECTED TO MODEL MODEL            PACKAGE NPF              ON UNIT   1017 AT TIME STEP      1, STRESS PERIOD      2

 HEAD WILL BE SAVED ON UNIT 1016 AT END OF TIME STEP    1, STRESS PERIOD    2


  VOLUME BUDGET FOR ENTIRE MODEL AT END OF TIME STEP    1, STRESS PERIOD   2
  ---------------------------------------------------------------------------------------------------

     CUMULATIVE VOLUME      L**3       RATES FOR THIS TIME STEP      L**3/T          PACKAGE NAME    
     ------------------                 ------------------------                     ----------------

           IN:                                      IN:
           ---                                      ---
              STO-SS =           0.0000                STO-SS =           0.0000     STORAGE                          
                 RIV =           0.0000                   RIV =           0.0000     RIV-1                            
                 RCH =       2.7995E-02                   RCH =       1.3997E-02     RCH-1                            

            TOTAL IN =       2.7995E-02              TOTAL IN =       1.3997E-02

          OUT:                                     OUT:
          ----                                     ----
              STO-SS =       2.7995E-02                STO-SS =       1.3997E-02     STORAGE                          
                 RIV =           0.0000                   RIV =           0.0000     RIV-1                            
                 RCH =           0.0000                   RCH =           0.0000     RCH-1                            

           TOTAL OUT =       2.7995E-02             TOTAL OUT =       1.3997E-02

            IN - OUT =       1.1487E-13              IN - OUT =       2.0204E-13

 PERCENT DISCREPANCY =           0.00     PERCENT DISCREPANCY =           0.00




         TIME SUMMARY AT END OF TIME STEP    1 IN STRESS PERIOD    2
                    SECONDS     MINUTES      HOURS       DAYS        YEARS
                    -----------------------------------------------------------
   TIME STEP LENGTH  86400.      1440.0      24.000      1.0000     2.73785E-03
 STRESS PERIOD TIME  86400.      1440.0      24.000      1.0000     2.73785E-03
         TOTAL TIME 1.72800E+05  2880.0      48.000      2.0000     5.47570E-03


end timestep


start timestep kper="3" kstp="1" mode="normal"


 OUTPUT CONTROL FOR STRESS PERIOD 3 IS REPEATED USING SETTINGS FROM A PREVIOUS STRESS PERIOD.


 STRESS PERIOD 3 IS TRANSIENT

 UBDSV1 SAVING           STO-SS ON UNIT   1017 AT TIME STEP      1, STRESS PERIOD      3
 UBDSV1 SAVING     FLOW-JA-FACE ON UNIT   1017 AT TIME STEP      1, STRESS PERIOD      3
 UBDSV06 SAVING         DATA-SAT IN MODEL MODEL            PACKAGE NPF             CONNECTED TO MODEL MODEL            PACKAGE NPF              ON UNIT   1017 AT TIME STEP      1, STRESS PERIOD      3

 HEAD WILL BE SAVED ON UNIT 1016 AT END OF TIME STEP    1, STRESS PERIOD    3


  VOLUME BUDGET FOR ENTIRE MODEL AT END OF TIME STEP    1, STRESS PERIOD   3
  ---------------------------------------------------------------------------------------------------

     CUMULATIVE VOLUME      L**3       RATES FOR THIS TIME STEP      L**3/T          PACKAGE NAME    
     ------------------                 ------------------------                     ----------------

           IN:                                      IN:
           ---                                      ---
              STO-SS =           0.0000                STO-SS =           0.0000     STORAGE                          
                 RIV =           0.0000                   RIV =           0.0000     RIV-1                            
                 RCH =       4.1992E-02                   RCH =       1.3997E-02     RCH-1                            

            TOTAL IN =       4.1992E-02              TOTAL IN =       1.3997E-02

          OUT:                                     OUT:
          ----                                     ----
              STO-SS =       4.1992E-02                STO-SS =       1.3997E-02     STORAGE                          
                 RIV =           0.0000                   RIV =           0.0000     RIV-1                            
                 RCH =           0.0000                   RCH =           0.0000     RCH-1                            

           TOTAL OUT =       4.1992E-02             TOTAL OUT =       1.3997E-02

            IN - OUT =       1.7291E-13              IN - OUT =       5.8044E-14

 PERCENT DISCREPANCY =           0.00     PERCENT DISCREPANCY =           0.00




         TIME SUMMARY AT END OF TIME STEP    1 IN STRESS PERIOD    3
                    SECONDS     MINUTES      HOURS       DAYS        YEARS
                    -----------------------------------------------------------
   TIME STEP LENGTH  86400.      1440.0      24.000      1.0000     2.73785E-03
 STRESS PERIOD TIME  86400.      1440.0      24.000      1.0000     2.73785E-03
         TOTAL TIME 2.59200E+05  4320.0      72.000      3.0000     8.21355E-03


end timestep


start timestep kper="4" kstp="1" mode="normal"


 OUTPUT CONTROL FOR STRESS PERIOD 4 IS REPEATED USING SETTINGS FROM A PREVIOUS STRESS PERIOD.


 STRESS PERIOD 4 IS TRANSIENT

 UBDSV1 SAVING           STO-SS ON UNIT   1017 AT TIME STEP      1, STRESS PERIOD      4
 UBDSV1 SAVING     FLOW-JA-FACE ON UNIT   1017 AT TIME STEP      1, STRESS PERIOD      4
 UBDSV06 SAVING         DATA-SAT IN MODEL MODEL            PACKAGE NPF             CONNECTED TO MODEL MODEL            PACKAGE NPF              ON UNIT   1017 AT TIME STEP      1, STRESS PERIOD      4

 HEAD WILL BE SAVED ON UNIT 1016 AT END OF TIME STEP    1, STRESS PERIOD    4


  VOLUME BUDGET FOR ENTIRE MODEL AT END OF TIME STEP    1, STRESS PERIOD   4
  ---------------------------------------------------------------------------------------------------

     CUMULATIVE VOLUME      L**3       RATES FOR THIS TIME STEP      L**3/T          PACKAGE NAME    
     ------------------                 ------------------------                     ----------------

           IN:                                      IN:
           ---                                      ---
              STO-SS =           0.0000                STO-SS =           0.0000     STORAGE                          
                 RIV =           0.0000                   RIV =           0.0000     RIV-1                            
                 RCH =       5.5989E-02                   RCH =       1.3997E-02     RCH-1                            

            TOTAL IN =       5.5989E-02              TOTAL IN =       1.3997E-02

          OUT:                                     OUT:
          ----                                     ----
              STO-SS =       5.5989E-02                STO-SS =       1.3997E-02     STORAGE                          
                 RIV =           0.0000                   RIV =           0.0000     RIV-1                            
                 RCH =           0.0000                   RCH =           0.0000     RCH-1                            

           TOTAL OUT =       5.5989E-02             TOTAL OUT =       1.3997E-02

            IN - OUT =       3.6485E-13              IN - OUT =       1.9194E-13

 PERCENT DISCREPANCY =           0.00     PERCENT DISCREPANCY =           0.00




         TIME SUMMARY AT END OF TIME STEP    1 IN STRESS PERIOD    4
                    SECONDS     MINUTES      HOURS       DAYS        YEARS
                    -----------------------------------------------------------
   TIME STEP LENGTH  86400.      1440.0      24.000      1.0000     2.73785E-03
 STRESS PERIOD TIME  86400.      1440.0      24.000      1.0000     2.73785E-03
         TOTAL TIME 3.45600E+05  5760.0      96.000      4.0000     1.09514E-02


end timestep


start timestep kper="5" kstp="1" mode="normal"


 OUTPUT CONTROL FOR STRESS PERIOD 5 IS REPEATED USING SETTINGS FROM A PREVIOUS STRESS PERIOD.


 STRESS PERIOD 5 IS TRANSIENT

 UBDSV1 SAVING           STO-SS ON UNIT   1017 AT TIME STEP      1, STRESS PERIOD      5
 UBDSV1 SAVING     FLOW-JA-FACE ON UNIT   1017 AT TIME STEP      1, STRESS PERIOD      5
 UBDSV06 SAVING         DATA-SAT IN MODEL MODEL            PACKAGE NPF             CONNECTED TO MODEL MODEL            PACKAGE NPF              ON UNIT   1017 AT TIME STEP      1, STRESS PERIOD      5

 HEAD WILL BE SAVED ON UNIT 1016 AT END OF TIME STEP    1, STRESS PERIOD    5


  VOLUME BUDGET FOR ENTIRE MODEL AT END OF TIME STEP    1, STRESS PERIOD   5
  ---------------------------------------------------------------------------------------------------

     CUMULATIVE VOLUME      L**3       RATES FOR THIS TIME STEP      L**3/T          PACKAGE NAME    
     ------------------                 ------------------------                     ----------------

           IN:                                      IN:
           ---                                      ---
              STO-SS =           0.0000                STO-SS =           0.0000     STORAGE                          
                 RIV =           0.0000                   RIV =           0.0000     RIV-1                            
                 RCH =       6.9985E-02                   RCH =       1.3997E-02     RCH-1                            

            TOTAL IN =       6.9985E-02              TOTAL IN =       1.3997E-02

          OUT:                                     OUT:
          ----                                     ----
              STO-SS =       6.9985E-02                STO-SS =       1.3997E-02     STORAGE                          
                 RIV =           0.0000                   RIV =           0.0000     RIV-1                            
                 RCH =           0.0000                   RCH =           0.0000     RCH-1                            

           TOTAL OUT =       6.9985E-02             TOTAL OUT =       1.3997E-02

            IN - OUT =       6.1307E-13              IN - OUT =       2.4823E-13

 PERCENT DISCREPANCY =           0.00     PERCENT DISCREPANCY =           0.00




         TIME SUMMARY AT END OF TIME STEP    1 IN STRESS PERIOD    5
                    SECONDS     MINUTES      HOURS       DAYS        YEARS
                    -----------------------------------------------------------
   TIME STEP LENGTH  86400.      1440.0      24.000      1.0000     2.73785E-03
 STRESS PERIOD TIME  86400.      1440.0      24.000      1.0000     2.73785E-03
         TOTAL TIME 4.32000E+05  7200.0      120.00      5.0000     1.36893E-02


end timestep


start timestep kper="6" kstp="1" mode="normal"


 OUTPUT CONTROL FOR STRESS PERIOD 6 IS REPEATED USING SETTINGS FROM A PREVIOUS STRESS PERIOD.


 STRESS PERIOD 6 IS TRANSIENT

 UBDSV1 SAVING           STO-SS ON UNIT   1017 AT TIME STEP      1, STRESS PERIOD      6
 UBDSV1 SAVING     FLOW-JA-FACE ON UNIT   1017 AT TIME STEP      1, STRESS PERIOD      6
 UBDSV06 SAVING         DATA-SAT IN MODEL MODEL            PACKAGE NPF             CONNECTED TO MODEL MODEL            PACKAGE NPF              ON UNIT   1017 AT TIME STEP      1, STRESS PERIOD      6

 HEAD WILL BE SAVED ON UNIT 1016 AT END OF TIME STEP    1, STRESS PERIOD    6


  VOLUME BUDGET FOR ENTIRE MODEL AT END OF TIME STEP    1, STRESS PERIOD   6
  ---------------------------------------------------------------------------------------------------

     CUMULATIVE VOLUME      L**3       RATES FOR THIS TIME STEP      L**3/T          PACKAGE NAME    
     ------------------                 ------------------------                     ----------------

           IN:                                      IN:
           ---                                      ---
              STO-SS =           0.0000                STO-SS =           0.0000     STORAGE                          
                 RIV =           0.0000                   RIV =           0.0000     RIV-1                            
                 RCH =       8.3982E-02                   RCH =       1.3997E-02     RCH-1                            

            TOTAL IN =       8.3982E-02              TOTAL IN =       1.3997E-02

          OUT:                                     OUT:
          ----                                     ----
              STO-SS =       8.3982E-02                STO-SS =       1.3997E-02     STORAGE                          
                 RIV =           0.0000                   RIV =           0.0000     RIV-1                            
                 RCH =           0.0000                   RCH =           0.0000     RCH-1                            

           TOTAL OUT =       8.3982E-02             TOTAL OUT =       1.3997E-02

            IN - OUT =       6.4124E-13              IN - OUT =       2.8179E-14

 PERCENT DISCREPANCY =           0.00     PERCENT DISCREPANCY =           0.00




         TIME SUMMARY AT END OF TIME STEP    1 IN STRESS PERIOD    6
                    SECONDS     MINUTES      HOURS       DAYS        YEARS
                    -----------------------------------------------------------
   TIME STEP LENGTH  86400.      1440.0      24.000      1.0000     2.73785E-03
 STRESS PERIOD TIME  86400.      1440.0      24.000      1.0000     2.73785E-03
         TOTAL TIME 5.18400E+05  8640.0      144.00      6.0000     1.64271E-02


end timestep


start timestep kper="7" kstp="1" mode="normal"


 OUTPUT CONTROL FOR STRESS PERIOD 7 IS REPEATED USING SETTINGS FROM A PREVIOUS STRESS PERIOD.


 STRESS PERIOD 7 IS TRANSIENT

 UBDSV1 SAVING           STO-SS ON UNIT   1017 AT TIME STEP      1, STRESS PERIOD      7
 UBDSV1 SAVING     FLOW-JA-FACE ON UNIT   1017 AT TIME STEP      1, STRESS PERIOD      7
 UBDSV06 SAVING         DATA-SAT IN MODEL MODEL            PACKAGE NPF             CONNECTED TO MODEL MODEL            PACKAGE NPF              ON UNIT   1017 AT TIME STEP      1, STRESS PERIOD      7

 HEAD WILL BE SAVED ON UNIT 1016 AT END OF TIME STEP    1, STRESS PERIOD    7


  VOLUME BUDGET FOR ENTIRE MODEL AT END OF TIME STEP    1, STRESS PERIOD   7
  ---------------------------------------------------------------------------------------------------

     CUMULATIVE VOLUME      L**3       RATES FOR THIS TIME STEP      L**3/T          PACKAGE NAME    
     ------------------                 ------------------------                     ----------------

           IN:                                      IN:
           ---                                      ---
              STO-SS =           0.0000                STO-SS =           0.0000     STORAGE                          
                 RIV =           0.0000                   RIV =           0.0000     RIV-1                            
                 RCH =       9.7979E-02                   RCH =       1.3997E-02     RCH-1                            

            TOTAL IN =       9.7979E-02              TOTAL IN =       1.3997E-02

          OUT:                                     OUT:
          ----                                     ----
              STO-SS =       9.7979E-02                STO-SS =       1.3997E-02     STORAGE                          
                 RIV =           0.0000                   RIV =           0.0000     RIV-1                            
                 RCH =           0.0000                   RCH =           0.0000     RCH-1                            

           TOTAL OUT =       9.7979E-02             TOTAL OUT =       1.3997E-02

            IN - OUT =       6.9683E-13              IN - OUT =       5.5601E-14

 PERCENT DISCREPANCY =           0.00     PERCENT DISCREPANCY =           0.00




         TIME SUMMARY AT END OF TIME STEP    1 IN STRESS PERIOD    7
                    SECONDS     MINUTES      HOURS       DAYS        YEARS
                    -----------------------------------------------------------
   TIME STEP LENGTH  86400.      1440.0      24.000      1.0000     2.73785E-03
 STRESS PERIOD TIME  86400.      1440.0      24.000      1.0000     2.73785E-03
         TOTAL TIME 6.04800E+05  10080.      168.00      7.0000     1.91650E-02


end timestep


start timestep kper="8" kstp="1" mode="normal"


 OUTPUT CONTROL FOR STRESS PERIOD 8 IS REPEATED USING SETTINGS FROM A PREVIOUS STRESS PERIOD.


 STRESS PERIOD 8 IS TRANSIENT

 UBDSV1 SAVING           STO-SS ON UNIT   1017 AT TIME STEP      1, STRESS PERIOD      8
 UBDSV1 SAVING     FLOW-JA-FACE ON UNIT   1017 AT TIME STEP      1, STRESS PERIOD      8
 UBDSV06 SAVING         DATA-SAT IN MODEL MODEL            PACKAGE NPF             CONNECTED TO MODEL MODEL            PACKAGE NPF              ON UNIT   1017 AT TIME STEP      1, STRESS PERIOD      8

 HEAD WILL BE SAVED ON UNIT 1016 AT END OF TIME STEP    1, STRESS PERIOD    8


  VOLUME BUDGET FOR ENTIRE MODEL AT END OF TIME STEP    1, STRESS PERIOD   8
  ---------------------------------------------------------------------------------------------------

     CUMULATIVE VOLUME      L**3       RATES FOR THIS TIME STEP      L**3/T          PACKAGE NAME    
     ------------------                 ------------------------                     ----------------

           IN:                                      IN:
           ---                                      ---
              STO-SS =           0.0000                STO-SS =           0.0000     STORAGE                          
                 RIV =           0.0000                   RIV =           0.0000     RIV-1                            
                 RCH =           0.1120                   RCH =       1.3997E-02     RCH-1                            

            TOTAL IN =           0.1120              TOTAL IN =       1.3997E-02

          OUT:                                     OUT:
          ----                                     ----
              STO-SS =           0.1120                STO-SS =       1.3997E-02     STORAGE                          
                 RIV =           0.0000                   RIV =           0.0000     RIV-1                            
                 RCH =           0.0000                   RCH =           0.0000     RCH-1                            

           TOTAL OUT =           0.1120             TOTAL OUT =       1.3997E-02

            IN - OUT =       8.8443E-13              IN - OUT =       1.8761E-13

 PERCENT DISCREPANCY =           0.00     PERCENT DISCREPANCY =           0.00




         TIME SUMMARY AT END OF TIME STEP    1 IN STRESS PERIOD    8
                    SECONDS     MINUTES      HOURS       DAYS        YEARS
                    -----------------------------------------------------------
   TIME STEP LENGTH  86400.      1440.0      24.000      1.0000     2.73785E-03
 STRESS PERIOD TIME  86400.      1440.0      24.000      1.0000     2.73785E-03
         TOTAL TIME 6.91200E+05  11520.      192.00      8.0000     2.19028E-02


end timestep


start timestep kper="9" kstp="1" mode="normal"


 OUTPUT CONTROL FOR STRESS PERIOD 9 IS REPEATED USING SETTINGS FROM A PREVIOUS STRESS PERIOD.


 STRESS PERIOD 9 IS TRANSIENT

 UBDSV1 SAVING           STO-SS ON UNIT   1017 AT TIME STEP      1, STRESS PERIOD      9
 UBDSV1 SAVING     FLOW-JA-FACE ON UNIT   1017 AT TIME STEP      1, STRESS PERIOD      9
 UBDSV06 SAVING         DATA-SAT IN MODEL MODEL            PACKAGE NPF             CONNECTED TO MODEL MODEL            PACKAGE NPF              ON UNIT   1017 AT TIME STEP      1, STRESS PERIOD      9

 HEAD WILL BE SAVED ON UNIT 1016 AT END OF TIME STEP    1, STRESS PERIOD    9


  VOLUME BUDGET FOR ENTIRE MODEL AT END OF TIME STEP    1, STRESS PERIOD   9
  ---------------------------------------------------------------------------------------------------

     CUMULATIVE VOLUME      L**3       RATES FOR THIS TIME STEP      L**3/T          PACKAGE NAME    
     ------------------                 ------------------------                     ----------------

           IN:                                      IN:
           ---                                      ---
              STO-SS =           0.0000                STO-SS =           0.0000     STORAGE                          
                 RIV =           0.0000                   RIV =           0.0000     RIV-1                            
                 RCH =           0.1260                   RCH =       1.3996E-02     RCH-1                            

            TOTAL IN =           0.1260              TOTAL IN =       1.3996E-02

          OUT:                                     OUT:
          ----                                     ----
              STO-SS =           0.1260                STO-SS =       1.3996E-02     STORAGE                          
                 RIV =           0.0000                   RIV =           0.0000     RIV-1                            
                 RCH =           0.0000                   RCH =           0.0000     RCH-1                            

           TOTAL OUT =           0.1260             TOTAL OUT =       1.3996E-02

            IN - OUT =       9.0850E-13              IN - OUT =       2.4071E-14

 PERCENT DISCREPANCY =           0.00     PERCENT DISCREPANCY =           0.00




         TIME SUMMARY AT END OF TIME STEP    1 IN STRESS PERIOD    9
                    SECONDS     MINUTES      HOURS       DAYS        YEARS
                    -----------------------------------------------------------
   TIME STEP LENGTH  86400.      1440.0      24.000      1.0000     2.73785E-03
 STRESS PERIOD TIME  86400.      1440.0      24.000      1.0000     2.73785E-03
         TOTAL TIME 7.77600E+05  12960.      216.00      9.0000     2.46407E-02


end timestep


start timestep kper="10" kstp="1" mode="normal"


 OUTPUT CONTROL FOR STRESS PERIOD 10 IS REPEATED USING SETTINGS FROM A PREVIOUS STRESS PERIOD.


 STRESS PERIOD 10 IS TRANSIENT

 UBDSV1 SAVING           STO-SS ON UNIT   1017 AT TIME STEP      1, STRESS PERIOD     10
 UBDSV1 SAVING     FLOW-JA-FACE ON UNIT   1017 AT TIME STEP      1, STRESS PERIOD     10
 UBDSV06 SAVING         DATA-SAT IN MODEL MODEL            PACKAGE NPF             CONNECTED TO MODEL MODEL            PACKAGE NPF              ON UNIT   1017 AT TIME STEP      1, STRESS PERIOD     10

 HEAD WILL BE SAVED ON UNIT 1016 AT END OF TIME STEP    1, STRESS PERIOD   10


  VOLUME BUDGET FOR ENTIRE MODEL AT END OF TIME STEP    1, STRESS PERIOD  10
  ---------------------------------------------------------------------------------------------------

     CUMULATIVE VOLUME      L**3       RATES FOR THIS TIME STEP      L**3/T          PACKAGE NAME    
     ------------------                 ------------------------                     ----------------

           IN:                                      IN:
           ---                                      ---
              STO-SS =           0.0000                STO-SS =           0.0000     STORAGE                          
                 RIV =           0.0000                   RIV =           0.0000     RIV-1                            
                 RCH =           0.1400                   RCH =       1.3996E-02     RCH-1                            

            TOTAL IN =           0.1400              TOTAL IN =       1.3996E-02

          OUT:                                     OUT:
          ----                                     ----
              STO-SS =           0.1400                STO-SS =       1.3996E-02     STORAGE                          
                 RIV =           0.0000                   RIV =           0.0000     RIV-1                            
                 RCH =           0.0000                   RCH =           0.0000     RCH-1                            

           TOTAL OUT =           0.1400             TOTAL OUT =       1.3996E-02

            IN - OUT =       1.1773E-12              IN - OUT =       2.6876E-13

 PERCENT DISCREPANCY =           0.00     PERCENT DISCREPANCY =           0.00




         TIME SUMMARY AT END OF TIME STEP    1 IN STRESS PERIOD   10
                    SECONDS     MINUTES      HOURS       DAYS        YEARS
                    -----------------------------------------------------------
   TIME STEP LENGTH  86400.      1440.0      24.000      1.0000     2.73785E-03
 STRESS PERIOD TIME  86400.      1440.0      24.000      1.0000     2.73785E-03
         TOTAL TIME 8.64000E+05  14400.      240.00      10.000     2.73785E-02


end timestep


start timestep kper="11" kstp="1" mode="normal"


 OUTPUT CONTROL FOR STRESS PERIOD 11 IS REPEATED USING SETTINGS FROM A PREVIOUS STRESS PERIOD.


 STRESS PERIOD 11 IS TRANSIENT

 UBDSV1 SAVING           STO-SS ON UNIT   1017 AT TIME STEP      1, STRESS PERIOD     11
 UBDSV1 SAVING     FLOW-JA-FACE ON UNIT   1017 AT TIME STEP      1, STRESS PERIOD     11
 UBDSV06 SAVING         DATA-SAT IN MODEL MODEL            PACKAGE NPF             CONNECTED TO MODEL MODEL            PACKAGE NPF              ON UNIT   1017 AT TIME STEP      1, STRESS PERIOD     11

 HEAD WILL BE SAVED ON UNIT 1016 AT END OF TIME STEP    1, STRESS PERIOD   11


  VOLUME BUDGET FOR ENTIRE MODEL AT END OF TIME STEP    1, STRESS PERIOD  11
  ---------------------------------------------------------------------------------------------------

     CUMULATIVE VOLUME      L**3       RATES FOR THIS TIME STEP      L**3/T          PACKAGE NAME    
     ------------------                 ------------------------                     ----------------

           IN:                                      IN:
           ---                                      ---
              STO-SS =           0.0000                STO-SS =           0.0000     STORAGE                          
                 RIV =           0.0000                   RIV =           0.0000     RIV-1                            
                 RCH =           0.1540                   RCH =       1.3996E-02     RCH-1                            

            TOTAL IN =           0.1540              TOTAL IN =       1.3996E-02

          OUT:                                     OUT:
          ----                                     ----
              STO-SS =           0.1540                STO-SS =       1.3996E-02     STORAGE                          
                 RIV =           0.0000                   RIV =           0.0000     RIV-1                            
                 RCH =           0.0000                   RCH =           0.0000     RCH-1                            

           TOTAL OUT =           0.1540             TOTAL OUT =       1.3996E-02

            IN - OUT =       1.3884E-12              IN - OUT =       2.1114E-13

 PERCENT DISCREPANCY =           0.00     PERCENT DISCREPANCY =           0.00




         TIME SUMMARY AT END OF TIME STEP    1 IN STRESS PERIOD   11
                    SECONDS     MINUTES      HOURS       DAYS        YEARS
                    -----------------------------------------------------------
   TIME STEP LENGTH  86400.      1440.0      24.000      1.0000     2.73785E-03
 STRESS PERIOD TIME  86400.      1440.0      24.000      1.0000     2.73785E-03
         TOTAL TIME 9.50400E+05  15840.      264.00      11.000     3.01164E-02


end timestep


start timestep kper="12" kstp="1" mode="normal"


 OUTPUT CONTROL FOR STRESS PERIOD 12 IS REPEATED USING SETTINGS FROM A PREVIOUS STRESS PERIOD.


 STRESS PERIOD 12 IS TRANSIENT

 UBDSV1 SAVING           STO-SS ON UNIT   1017 AT TIME STEP      1, STRESS PERIOD     12
 UBDSV1 SAVING     FLOW-JA-FACE ON UNIT   1017 AT TIME STEP      1, STRESS PERIOD     12
 UBDSV06 SAVING         DATA-SAT IN MODEL MODEL            PACKAGE NPF             CONNECTED TO MODEL MODEL            PACKAGE NPF              ON UNIT   1017 AT TIME STEP      1, STRESS PERIOD     12

 HEAD WILL BE SAVED ON UNIT 1016 AT END OF TIME STEP    1, STRESS PERIOD   12


  VOLUME BUDGET FOR ENTIRE MODEL AT END OF TIME STEP    1, STRESS PERIOD  12
  ---------------------------------------------------------------------------------------------------

     CUMULATIVE VOLUME      L**3       RATES FOR THIS TIME STEP      L**3/T          PACKAGE NAME    
     ------------------                 ------------------------                     ----------------

           IN:                                      IN:
           ---                                      ---
              STO-SS =           0.0000                STO-SS =           0.0000     STORAGE                          
                 RIV =           0.0000                   RIV =           0.0000     RIV-1                            
                 RCH =           0.1680                   RCH =       1.3996E-02     RCH-1                            

            TOTAL IN =           0.1680              TOTAL IN =       1.3996E-02

          OUT:                                     OUT:
          ----                                     ----
              STO-SS =           0.1680                STO-SS =       1.3996E-02     STORAGE                          
                 RIV =           0.0000                   RIV =           0.0000     RIV-1                            
                 RCH =           0.0000                   RCH =           0.0000     RCH-1                            

           TOTAL OUT =           0.1680             TOTAL OUT =       1.3996E-02

            IN - OUT =       1.4578E-12              IN - OUT =       6.9368E-14

 PERCENT DISCREPANCY =           0.00     PERCENT DISCREPANCY =           0.00




         TIME SUMMARY AT END OF TIME STEP    1 IN STRESS PERIOD   12
                    SECONDS     MINUTES      HOURS       DAYS        YEARS
                    -----------------------------------------------------------
   TIME STEP LENGTH  86400.      1440.0      24.000      1.0000     2.73785E-03
 STRESS PERIOD TIME  86400.      1440.0      24.000      1.0000     2.73785E-03
         TOTAL TIME 1.03680E+06  17280.      288.00      12.000     3.28542E-02


end timestep


start timestep kper="13" kstp="1" mode="normal"


 OUTPUT CONTROL FOR STRESS PERIOD 13 IS REPEATED USING SETTINGS FROM A PREVIOUS STRESS PERIOD.


 STRESS PERIOD 13 IS TRANSIENT

 UBDSV1 SAVING           STO-SS ON UNIT   1017 AT TIME STEP      1, STRESS PERIOD     13
 UBDSV1 SAVING     FLOW-JA-FACE ON UNIT   1017 AT TIME STEP      1, STRESS PERIOD     13
 UBDSV06 SAVING         DATA-SAT IN MODEL MODEL            PACKAGE NPF             CONNECTED TO MODEL MODEL            PACKAGE NPF              ON UNIT   1017 AT TIME STEP      1, STRESS PERIOD     13

 HEAD WILL BE SAVED ON UNIT 1016 AT END OF TIME STEP    1, STRESS PERIOD   13


  VOLUME BUDGET FOR ENTIRE MODEL AT END OF TIME STEP    1, STRESS PERIOD  13
  ---------------------------------------------------------------------------------------------------

     CUMULATIVE VOLUME      L**3       RATES FOR THIS TIME STEP      L**3/T          PACKAGE NAME    
     ------------------                 ------------------------                     ----------------

           IN:                                      IN:
           ---                                      ---
              STO-SS =           0.0000                STO-SS =           0.0000     STORAGE                          
                 RIV =           0.0000                   RIV =           0.0000     RIV-1                            
                 RCH =           0.1820                   RCH =       1.3996E-02     RCH-1                            

            TOTAL IN =           0.1820              TOTAL IN =       1.3996E-02

          OUT:                                     OUT:
          ----                                     ----
              STO-SS =           0.1820                STO-SS =       1.3996E-02     STORAGE                          
                 RIV =           0.0000                   RIV =           0.0000     RIV-1                            
                 RCH =           0.0000                   RCH =           0.0000     RCH-1                            

           TOTAL OUT =           0.1820             TOTAL OUT =       1.3996E-02

            IN - OUT =       1.6878E-12              IN - OUT =       2.3002E-13

 PERCENT DISCREPANCY =           0.00     PERCENT DISCREPANCY =           0.00




         TIME SUMMARY AT END OF TIME STEP    1 IN STRESS PERIOD   13
                    SECONDS     MINUTES      HOURS       DAYS        YEARS
                    -----------------------------------------------------------
   TIME STEP LENGTH  86400.      1440.0      24.000      1.0000     2.73785E-03
 STRESS PERIOD TIME  86400.      1440.0      24.000      1.0000     2.73785E-03
         TOTAL TIME 1.12320E+06  18720.      312.00      13.000     3.55921E-02


end timestep


start timestep kper="14" kstp="1" mode="normal"


 OUTPUT CONTROL FOR STRESS PERIOD 14 IS REPEATED USING SETTINGS FROM A PREVIOUS STRESS PERIOD.


 STRESS PERIOD 14 IS TRANSIENT

 UBDSV1 SAVING           STO-SS ON UNIT   1017 AT TIME STEP      1, STRESS PERIOD     14
 UBDSV1 SAVING     FLOW-JA-FACE ON UNIT   1017 AT TIME STEP      1, STRESS PERIOD     14
 UBDSV06 SAVING         DATA-SAT IN MODEL MODEL            PACKAGE NPF             CONNECTED TO MODEL MODEL            PACKAGE NPF              ON UNIT   1017 AT TIME STEP      1, STRESS PERIOD     14

 HEAD WILL BE SAVED ON UNIT 1016 AT END OF TIME STEP    1, STRESS PERIOD   14


  VOLUME BUDGET FOR ENTIRE MODEL AT END OF TIME STEP    1, STRESS PERIOD  14
  ---------------------------------------------------------------------------------------------------

     CUMULATIVE VOLUME      L**3       RATES FOR THIS TIME STEP      L**3/T          PACKAGE NAME    
     ------------------                 ------------------------                     ----------------

           IN:                                      IN:
           ---                                      ---
              STO-SS =           0.0000                STO-SS =           0.0000     STORAGE                          
                 RIV =           0.0000                   RIV =           0.0000     RIV-1                            
                 RCH =           0.1960                   RCH =       1.3997E-02     RCH-1                            

            TOTAL IN =           0.1960              TOTAL IN =       1.3997E-02

          OUT:                                     OUT:
          ----                                     ----
              STO-SS =           0.1960                STO-SS =       1.3997E-02     STORAGE                          
                 RIV =           0.0000                   RIV =           0.0000     RIV-1                            
                 RCH =           0.0000                   RCH =           0.0000     RCH-1                            

           TOTAL OUT =           0.1960             TOTAL OUT =       1.3997E-02

            IN - OUT =       2.1245E-12              IN - OUT =       4.3674E-13

 PERCENT DISCREPANCY =           0.00     PERCENT DISCREPANCY =           0.00




         TIME SUMMARY AT END OF TIME STEP    1 IN STRESS PERIOD   14
                    SECONDS     MINUTES      HOURS       DAYS        YEARS
                    -----------------------------------------------------------
   TIME STEP LENGTH  86400.      1440.0      24.000      1.0000     2.73785E-03
 STRESS PERIOD TIME  86400.      1440.0      24.000      1.0000     2.73785E-03
         TOTAL TIME 1.20960E+06  20160.      336.00      14.000     3.83299E-02


end timestep


start timestep kper="15" kstp="1" mode="normal"


 OUTPUT CONTROL FOR STRESS PERIOD 15 IS REPEATED USING SETTINGS FROM A PREVIOUS STRESS PERIOD.


 STRESS PERIOD 15 IS TRANSIENT

 UBDSV1 SAVING           STO-SS ON UNIT   1017 AT TIME STEP      1, STRESS PERIOD     15
 UBDSV1 SAVING     FLOW-JA-FACE ON UNIT   1017 AT TIME STEP      1, STRESS PERIOD     15
 UBDSV06 SAVING         DATA-SAT IN MODEL MODEL            PACKAGE NPF             CONNECTED TO MODEL MODEL            PACKAGE NPF              ON UNIT   1017 AT TIME STEP      1, STRESS PERIOD     15

 HEAD WILL BE SAVED ON UNIT 1016 AT END OF TIME STEP    1, STRESS PERIOD   15


  VOLUME BUDGET FOR ENTIRE MODEL AT END OF TIME STEP    1, STRESS PERIOD  15
  ---------------------------------------------------------------------------------------------------

     CUMULATIVE VOLUME      L**3       RATES FOR THIS TIME STEP      L**3/T          PACKAGE NAME    
     ------------------                 ------------------------                     ----------------

           IN:                                      IN:
           ---                                      ---
              STO-SS =           0.0000                STO-SS =           0.0000     STORAGE                          
                 RIV =           0.0000                   RIV =           0.0000     RIV-1                            
                 RCH =           0.2100                   RCH =       1.3997E-02     RCH-1                            

            TOTAL IN =           0.2100              TOTAL IN =       1.3997E-02

          OUT:                                     OUT:
          ----                                     ----
              STO-SS =           0.2100                STO-SS =       1.3997E-02     STORAGE                          
                 RIV =           0.0000                   RIV =           0.0000     RIV-1                            
                 RCH =           0.0000                   RCH =           0.0000     RCH-1                            

           TOTAL OUT =           0.2100             TOTAL OUT =       1.3997E-02

            IN - OUT =       2.6508E-12              IN - OUT =       5.2634E-13

 PERCENT DISCREPANCY =           0.00     PERCENT DISCREPANCY =           0.00




         TIME SUMMARY AT END OF TIME STEP    1 IN STRESS PERIOD   15
                    SECONDS     MINUTES      HOURS       DAYS        YEARS
                    -----------------------------------------------------------
   TIME STEP LENGTH  86400.      1440.0      24.000      1.0000     2.73785E-03
 STRESS PERIOD TIME  86400.      1440.0      24.000      1.0000     2.73785E-03
         TOTAL TIME 1.29600E+06  21600.      360.00      15.000     4.10678E-02


end timestep


start timestep kper="16" kstp="1" mode="normal"


 OUTPUT CONTROL FOR STRESS PERIOD 16 IS REPEATED USING SETTINGS FROM A PREVIOUS STRESS PERIOD.


 STRESS PERIOD 16 IS TRANSIENT

 UBDSV1 SAVING           STO-SS ON UNIT   1017 AT TIME STEP      1, STRESS PERIOD     16
 UBDSV1 SAVING     FLOW-JA-FACE ON UNIT   1017 AT TIME STEP      1, STRESS PERIOD     16
 UBDSV06 SAVING         DATA-SAT IN MODEL MODEL            PACKAGE NPF             CONNECTED TO MODEL MODEL            PACKAGE NPF              ON UNIT   1017 AT TIME STEP      1, STRESS PERIOD     16

 HEAD WILL BE SAVED ON UNIT 1016 AT END OF TIME STEP    1, STRESS PERIOD   16


  VOLUME BUDGET FOR ENTIRE MODEL AT END OF TIME STEP    1, STRESS PERIOD  16
  ---------------------------------------------------------------------------------------------------

     CUMULATIVE VOLUME      L**3       RATES FOR THIS TIME STEP      L**3/T          PACKAGE NAME    
     ------------------                 ------------------------                     ----------------

           IN:                                      IN:
           ---                                      ---
              STO-SS =           0.0000                STO-SS =           0.0000     STORAGE                          
                 RIV =           0.0000                   RIV =           0.0000     RIV-1                            
                 RCH =           0.2239                   RCH =       1.3997E-02     RCH-1                            

            TOTAL IN =           0.2239              TOTAL IN =       1.3997E-02

          OUT:                                     OUT:
          ----                                     ----
              STO-SS =           0.2239                STO-SS =       1.3997E-02     STORAGE                          
                 RIV =           0.0000                   RIV =           0.0000     RIV-1                            
                 RCH =           0.0000                   RCH =           0.0000     RCH-1                            

           TOTAL OUT =           0.2239             TOTAL OUT =       1.3997E-02

            IN - OUT =       2.8375E-12              IN - OUT =       1.8672E-13

 PERCENT DISCREPANCY =           0.00     PERCENT DISCREPANCY =           0.00




         TIME SUMMARY AT END OF TIME STEP    1 IN STRESS PERIOD   16
                    SECONDS     MINUTES      HOURS       DAYS        YEARS
                    -----------------------------------------------------------
   TIME STEP LENGTH  86400.      1440.0      24.000      1.0000     2.73785E-03
 STRESS PERIOD TIME  86400.      1440.0      24.000      1.0000     2.73785E-03
         TOTAL TIME 1.38240E+06  23040.      384.00      16.000     4.38056E-02


end timestep


start timestep kper="17" kstp="1" mode="normal"


 OUTPUT CONTROL FOR STRESS PERIOD 17 IS REPEATED USING SETTINGS FROM A PREVIOUS STRESS PERIOD.


 STRESS PERIOD 17 IS TRANSIENT

 UBDSV1 SAVING           STO-SS ON UNIT   1017 AT TIME STEP      1, STRESS PERIOD     17
 UBDSV1 SAVING     FLOW-JA-FACE ON UNIT   1017 AT TIME STEP      1, STRESS PERIOD     17
 UBDSV06 SAVING         DATA-SAT IN MODEL MODEL            PACKAGE NPF             CONNECTED TO MODEL MODEL            PACKAGE NPF              ON UNIT   1017 AT TIME STEP      1, STRESS PERIOD     17

 HEAD WILL BE SAVED ON UNIT 1016 AT END OF TIME STEP    1, STRESS PERIOD   17


  VOLUME BUDGET FOR ENTIRE MODEL AT END OF TIME STEP    1, STRESS PERIOD  17
  ---------------------------------------------------------------------------------------------------

     CUMULATIVE VOLUME      L**3       RATES FOR THIS TIME STEP      L**3/T          PACKAGE NAME    
     ------------------                 ------------------------                     ----------------

           IN:                                      IN:
           ---                                      ---
              STO-SS =           0.0000                STO-SS =           0.0000     STORAGE                          
                 RIV =           0.0000                   RIV =           0.0000     RIV-1                            
                 RCH =           0.2379                   RCH =       1.3997E-02     RCH-1                            

            TOTAL IN =           0.2379              TOTAL IN =       1.3997E-02

          OUT:                                     OUT:
          ----                                     ----
              STO-SS =           0.2379                STO-SS =       1.3997E-02     STORAGE                          
                 RIV =           0.0000                   RIV =           0.0000     RIV-1                            
                 RCH =           0.0000                   RCH =           0.0000     RCH-1                            

           TOTAL OUT =           0.2379             TOTAL OUT =       1.3997E-02

            IN - OUT =       3.0972E-12              IN - OUT =       2.5966E-13

 PERCENT DISCREPANCY =           0.00     PERCENT DISCREPANCY =           0.00




         TIME SUMMARY AT END OF TIME STEP    1 IN STRESS PERIOD   17
                    SECONDS     MINUTES      HOURS       DAYS        YEARS
                    -----------------------------------------------------------
   TIME STEP LENGTH  86400.      1440.0      24.000      1.0000     2.73785E-03
 STRESS PERIOD TIME  86400.      1440.0      24.000      1.0000     2.73785E-03
         TOTAL TIME 1.46880E+06  24480.      408.00      17.000     4.65435E-02


end timestep


start timestep kper="18" kstp="1" mode="normal"


 OUTPUT CONTROL FOR STRESS PERIOD 18 IS REPEATED USING SETTINGS FROM A PREVIOUS STRESS PERIOD.


 STRESS PERIOD 18 IS TRANSIENT

 UBDSV1 SAVING           STO-SS ON UNIT   1017 AT TIME STEP      1, STRESS PERIOD     18
 UBDSV1 SAVING     FLOW-JA-FACE ON UNIT   1017 AT TIME STEP      1, STRESS PERIOD     18
 UBDSV06 SAVING         DATA-SAT IN MODEL MODEL            PACKAGE NPF             CONNECTED TO MODEL MODEL            PACKAGE NPF              ON UNIT   1017 AT TIME STEP      1, STRESS PERIOD     18

 HEAD WILL BE SAVED ON UNIT 1016 AT END OF TIME STEP    1, STRESS PERIOD   18


  VOLUME BUDGET FOR ENTIRE MODEL AT END OF TIME STEP    1, STRESS PERIOD  18
  ---------------------------------------------------------------------------------------------------

     CUMULATIVE VOLUME      L**3       RATES FOR THIS TIME STEP      L**3/T          PACKAGE NAME    
     ------------------                 ------------------------                     ----------------

           IN:                                      IN:
           ---                                      ---
              STO-SS =           0.0000                STO-SS =           0.0000     STORAGE                          
                 RIV =           0.0000                   RIV =           0.0000     RIV-1                            
                 RCH =           0.2519                   RCH =       1.3998E-02     RCH-1                            

            TOTAL IN =           0.2519              TOTAL IN =       1.3998E-02

          OUT:                                     OUT:
          ----                                     ----
              STO-SS =           0.2519                STO-SS =       1.3998E-02     STORAGE                          
                 RIV =           0.0000                   RIV =           0.0000     RIV-1                            
                 RCH =           0.0000                   RCH =           0.0000     RCH-1                            

           TOTAL OUT =           0.2519             TOTAL OUT =       1.3998E-02

            IN - OUT =       3.4194E-12              IN - OUT =       3.2217E-13

 PERCENT DISCREPANCY =           0.00     PERCENT DISCREPANCY =           0.00




         TIME SUMMARY AT END OF TIME STEP    1 IN STRESS PERIOD   18
                    SECONDS     MINUTES      HOURS       DAYS        YEARS
                    -----------------------------------------------------------
   TIME STEP LENGTH  86400.      1440.0      24.000      1.0000     2.73785E-03
 STRESS PERIOD TIME  86400.      1440.0      24.000      1.0000     2.73785E-03
         TOTAL TIME 1.55520E+06  25920.      432.00      18.000     4.92813E-02


end timestep


start timestep kper="19" kstp="1" mode="normal"


 OUTPUT CONTROL FOR STRESS PERIOD 19 IS REPEATED USING SETTINGS FROM A PREVIOUS STRESS PERIOD.


 STRESS PERIOD 19 IS TRANSIENT

 UBDSV1 SAVING           STO-SS ON UNIT   1017 AT TIME STEP      1, STRESS PERIOD     19
 UBDSV1 SAVING     FLOW-JA-FACE ON UNIT   1017 AT TIME STEP      1, STRESS PERIOD     19
 UBDSV06 SAVING         DATA-SAT IN MODEL MODEL            PACKAGE NPF             CONNECTED TO MODEL MODEL            PACKAGE NPF              ON UNIT   1017 AT TIME STEP      1, STRESS PERIOD     19

 HEAD WILL BE SAVED ON UNIT 1016 AT END OF TIME STEP    1, STRESS PERIOD   19


  VOLUME BUDGET FOR ENTIRE MODEL AT END OF TIME STEP    1, STRESS PERIOD  19
  ---------------------------------------------------------------------------------------------------

     CUMULATIVE VOLUME      L**3       RATES FOR THIS TIME STEP      L**3/T          PACKAGE NAME    
     ------------------                 ------------------------                     ----------------

           IN:                                      IN:
           ---                                      ---
              STO-SS =           0.0000                STO-SS =           0.0000     STORAGE                          
                 RIV =           0.0000                   RIV =           0.0000     RIV-1                            
                 RCH =           0.2659                   RCH =       1.3998E-02     RCH-1                            

            TOTAL IN =           0.2659              TOTAL IN =       1.3998E-02

          OUT:                                     OUT:
          ----                                     ----
              STO-SS =           0.2659                STO-SS =       1.3998E-02     STORAGE                          
                 RIV =           0.0000                   RIV =           0.0000     RIV-1                            
                 RCH =           0.0000                   RCH =           0.0000     RCH-1                            

           TOTAL OUT =           0.2659             TOTAL OUT =       1.3998E-02

            IN - OUT =       3.8625E-12              IN - OUT =       4.4307E-13

 PERCENT DISCREPANCY =           0.00     PERCENT DISCREPANCY =           0.00




         TIME SUMMARY AT END OF TIME STEP    1 IN STRESS PERIOD   19
                    SECONDS     MINUTES      HOURS       DAYS        YEARS
                    -----------------------------------------------------------
   TIME STEP LENGTH  86400.      1440.0      24.000      1.0000     2.73785E-03
 STRESS PERIOD TIME  86400.      1440.0      24.000      1.0000     2.73785E-03
         TOTAL TIME 1.64160E+06  27360.      456.00      19.000     5.20192E-02


end timestep


start timestep kper="20" kstp="1" mode="normal"


 OUTPUT CONTROL FOR STRESS PERIOD 20 IS REPEATED USING SETTINGS FROM A PREVIOUS STRESS PERIOD.


 STRESS PERIOD 20 IS TRANSIENT

 UBDSV1 SAVING           STO-SS ON UNIT   1017 AT TIME STEP      1, STRESS PERIOD     20
 UBDSV1 SAVING     FLOW-JA-FACE ON UNIT   1017 AT TIME STEP      1, STRESS PERIOD     20
 UBDSV06 SAVING         DATA-SAT IN MODEL MODEL            PACKAGE NPF             CONNECTED TO MODEL MODEL            PACKAGE NPF              ON UNIT   1017 AT TIME STEP      1, STRESS PERIOD     20

 HEAD WILL BE SAVED ON UNIT 1016 AT END OF TIME STEP    1, STRESS PERIOD   20


  VOLUME BUDGET FOR ENTIRE MODEL AT END OF TIME STEP    1, STRESS PERIOD  20
  ---------------------------------------------------------------------------------------------------

     CUMULATIVE VOLUME      L**3       RATES FOR THIS TIME STEP      L**3/T          PACKAGE NAME    
     ------------------                 ------------------------                     ----------------

           IN:                                      IN:
           ---                                      ---
              STO-SS =           0.0000                STO-SS =           0.0000     STORAGE                          
                 RIV =           0.0000                   RIV =           0.0000     RIV-1                            
                 RCH =           0.2799                   RCH =       1.3999E-02     RCH-1                            

            TOTAL IN =           0.2799              TOTAL IN =       1.3999E-02

          OUT:                                     OUT:
          ----                                     ----
              STO-SS =           0.2799                STO-SS =       1.3999E-02     STORAGE                          
                 RIV =           0.0000                   RIV =           0.0000     RIV-1                            
                 RCH =           0.0000                   RCH =           0.0000     RCH-1                            

           TOTAL OUT =           0.2799             TOTAL OUT =       1.3999E-02

            IN - OUT =       4.1112E-12              IN - OUT =       2.4867E-13

 PERCENT DISCREPANCY =           0.00     PERCENT DISCREPANCY =           0.00




         TIME SUMMARY AT END OF TIME STEP    1 IN STRESS PERIOD   20
                    SECONDS     MINUTES      HOURS       DAYS        YEARS
                    -----------------------------------------------------------
   TIME STEP LENGTH  86400.      1440.0      24.000      1.0000     2.73785E-03
 STRESS PERIOD TIME  86400.      1440.0      24.000      1.0000     2.73785E-03
         TOTAL TIME 1.72800E+06  28800.      480.00      20.000     5.47570E-02


end timestep


start timestep kper="21" kstp="1" mode="normal"


 OUTPUT CONTROL FOR STRESS PERIOD 21 IS REPEATED USING SETTINGS FROM A PREVIOUS STRESS PERIOD.


 STRESS PERIOD 21 IS TRANSIENT

 UBDSV1 SAVING           STO-SS ON UNIT   1017 AT TIME STEP      1, STRESS PERIOD     21
 UBDSV1 SAVING     FLOW-JA-FACE ON UNIT   1017 AT TIME STEP      1, STRESS PERIOD     21
 UBDSV06 SAVING         DATA-SAT IN MODEL MODEL            PACKAGE NPF             CONNECTED TO MODEL MODEL            PACKAGE NPF              ON UNIT   1017 AT TIME STEP      1, STRESS PERIOD     21

 HEAD WILL BE SAVED ON UNIT 1016 AT END OF TIME STEP    1, STRESS PERIOD   21


  VOLUME BUDGET FOR ENTIRE MODEL AT END OF TIME STEP    1, STRESS PERIOD  21
  ---------------------------------------------------------------------------------------------------

     CUMULATIVE VOLUME      L**3       RATES FOR THIS TIME STEP      L**3/T          PACKAGE NAME    
     ------------------                 ------------------------                     ----------------

           IN:                                      IN:
           ---                                      ---
              STO-SS =           0.0000                STO-SS =           0.0000     STORAGE                          
                 RIV =           0.0000                   RIV =           0.0000     RIV-1                            
                 RCH =           0.2939                   RCH =       1.3999E-02     RCH-1                            

            TOTAL IN =           0.2939              TOTAL IN =       1.3999E-02

          OUT:                                     OUT:
          ----                                     ----
              STO-SS =           0.2939                STO-SS =       1.3999E-02     STORAGE                          
                 RIV =           0.0000                   RIV =           0.0000     RIV-1                            
                 RCH =           0.0000                   RCH =           0.0000     RCH-1                            

           TOTAL OUT =           0.2939             TOTAL OUT =       1.3999E-02

            IN - OUT =       4.3887E-12              IN - OUT =       2.7753E-13

 PERCENT DISCREPANCY =           0.00     PERCENT DISCREPANCY =           0.00




         TIME SUMMARY AT END OF TIME STEP    1 IN STRESS PERIOD   21
                    SECONDS     MINUTES      HOURS       DAYS        YEARS
                    -----------------------------------------------------------
   TIME STEP LENGTH  86400.      1440.0      24.000      1.0000     2.73785E-03
 STRESS PERIOD TIME  86400.      1440.0      24.000      1.0000     2.73785E-03
         TOTAL TIME 1.81440E+06  30240.      504.00      21.000     5.74949E-02


end timestep


start timestep kper="22" kstp="1" mode="normal"


 OUTPUT CONTROL FOR STRESS PERIOD 22 IS REPEATED USING SETTINGS FROM A PREVIOUS STRESS PERIOD.


 STRESS PERIOD 22 IS TRANSIENT

 UBDSV1 SAVING           STO-SS ON UNIT   1017 AT TIME STEP      1, STRESS PERIOD     22
 UBDSV1 SAVING     FLOW-JA-FACE ON UNIT   1017 AT TIME STEP      1, STRESS PERIOD     22
 UBDSV06 SAVING         DATA-SAT IN MODEL MODEL            PACKAGE NPF             CONNECTED TO MODEL MODEL            PACKAGE NPF              ON UNIT   1017 AT TIME STEP      1, STRESS PERIOD     22

 HEAD WILL BE SAVED ON UNIT 1016 AT END OF TIME STEP    1, STRESS PERIOD   22


  VOLUME BUDGET FOR ENTIRE MODEL AT END OF TIME STEP    1, STRESS PERIOD  22
  ---------------------------------------------------------------------------------------------------

     CUMULATIVE VOLUME      L**3       RATES FOR THIS TIME STEP      L**3/T          PACKAGE NAME    
     ------------------                 ------------------------                     ----------------

           IN:                                      IN:
           ---                                      ---
              STO-SS =           0.0000                STO-SS =           0.0000     STORAGE                          
                 RIV =           0.0000                   RIV =           0.0000     RIV-1                            
                 RCH =           0.3079                   RCH =       1.4000E-02     RCH-1                            

            TOTAL IN =           0.3079              TOTAL IN =       1.4000E-02

          OUT:                                     OUT:
          ----                                     ----
              STO-SS =           0.3079                STO-SS =       1.4000E-02     STORAGE                          
                 RIV =           0.0000                   RIV =           0.0000     RIV-1                            
                 RCH =           0.0000                   RCH =           0.0000     RCH-1                            

           TOTAL OUT =           0.3079             TOTAL OUT =       1.4000E-02

            IN - OUT =       4.5621E-12              IN - OUT =       1.7340E-13

 PERCENT DISCREPANCY =           0.00     PERCENT DISCREPANCY =           0.00




         TIME SUMMARY AT END OF TIME STEP    1 IN STRESS PERIOD   22
                    SECONDS     MINUTES      HOURS       DAYS        YEARS
                    -----------------------------------------------------------
   TIME STEP LENGTH  86400.      1440.0      24.000      1.0000     2.73785E-03
 STRESS PERIOD TIME  86400.      1440.0      24.000      1.0000     2.73785E-03
         TOTAL TIME 1.90080E+06  31680.      528.00      22.000     6.02327E-02


end timestep


start timestep kper="23" kstp="1" mode="normal"


 OUTPUT CONTROL FOR STRESS PERIOD 23 IS REPEATED USING SETTINGS FROM A PREVIOUS STRESS PERIOD.


 STRESS PERIOD 23 IS TRANSIENT

 UBDSV1 SAVING           STO-SS ON UNIT   1017 AT TIME STEP      1, STRESS PERIOD     23
 UBDSV1 SAVING     FLOW-JA-FACE ON UNIT   1017 AT TIME STEP      1, STRESS PERIOD     23
 UBDSV06 SAVING         DATA-SAT IN MODEL MODEL            PACKAGE NPF             CONNECTED TO MODEL MODEL            PACKAGE NPF              ON UNIT   1017 AT TIME STEP      1, STRESS PERIOD     23

 HEAD WILL BE SAVED ON UNIT 1016 AT END OF TIME STEP    1, STRESS PERIOD   23


  VOLUME BUDGET FOR ENTIRE MODEL AT END OF TIME STEP    1, STRESS PERIOD  23
  ---------------------------------------------------------------------------------------------------

     CUMULATIVE VOLUME      L**3       RATES FOR THIS TIME STEP      L**3/T          PACKAGE NAME    
     ------------------                 ------------------------                     ----------------

           IN:                                      IN:
           ---                                      ---
              STO-SS =           0.0000                STO-SS =           0.0000     STORAGE                          
                 RIV =           0.0000                   RIV =           0.0000     RIV-1                            
                 RCH =           0.3219                   RCH =       1.4002E-02     RCH-1                            

            TOTAL IN =           0.3219              TOTAL IN =       1.4002E-02

          OUT:                                     OUT:
          ----                                     ----
              STO-SS =           0.3219                STO-SS =       1.4002E-02     STORAGE                          
                 RIV =           0.0000                   RIV =           0.0000     RIV-1                            
                 RCH =           0.0000                   RCH =           0.0000     RCH-1                            

           TOTAL OUT =           0.3219             TOTAL OUT =       1.4002E-02

            IN - OUT =       4.4684E-12              IN - OUT =      -9.3724E-14

 PERCENT DISCREPANCY =           0.00     PERCENT DISCREPANCY =          -0.00




         TIME SUMMARY AT END OF TIME STEP    1 IN STRESS PERIOD   23
                    SECONDS     MINUTES      HOURS       DAYS        YEARS
                    -----------------------------------------------------------
   TIME STEP LENGTH  86400.      1440.0      24.000      1.0000     2.73785E-03
 STRESS PERIOD TIME  86400.      1440.0      24.000      1.0000     2.73785E-03
         TOTAL TIME 1.98720E+06  33120.      552.00      23.000     6.29706E-02


end timestep


start timestep kper="24" kstp="1" mode="normal"


 OUTPUT CONTROL FOR STRESS PERIOD 24 IS REPEATED USING SETTINGS FROM A PREVIOUS STRESS PERIOD.


 STRESS PERIOD 24 IS TRANSIENT

 UBDSV1 SAVING           STO-SS ON UNIT   1017 AT TIME STEP      1, STRESS PERIOD     24
 UBDSV1 SAVING     FLOW-JA-FACE ON UNIT   1017 AT TIME STEP      1, STRESS PERIOD     24
 UBDSV06 SAVING         DATA-SAT IN MODEL MODEL            PACKAGE NPF             CONNECTED TO MODEL MODEL            PACKAGE NPF              ON UNIT   1017 AT TIME STEP      1, STRESS PERIOD     24

 HEAD WILL BE SAVED ON UNIT 1016 AT END OF TIME STEP    1, STRESS PERIOD   24


  VOLUME BUDGET FOR ENTIRE MODEL AT END OF TIME STEP    1, STRESS PERIOD  24
  ---------------------------------------------------------------------------------------------------

     CUMULATIVE VOLUME      L**3       RATES FOR THIS TIME STEP      L**3/T          PACKAGE NAME    
     ------------------                 ------------------------                     ----------------

           IN:                                      IN:
           ---                                      ---
              STO-SS =           0.0000                STO-SS =           0.0000     STORAGE                          
                 RIV =           0.0000                   RIV =           0.0000     RIV-1                            
                 RCH =           0.3359                   RCH =       1.4003E-02     RCH-1                            

            TOTAL IN =           0.3359              TOTAL IN =       1.4003E-02

          OUT:                                     OUT:
          ----                                     ----
              STO-SS =           0.3359                STO-SS =       1.4003E-02     STORAGE                          
                 RIV =           0.0000                   RIV =           0.0000     RIV-1                            
                 RCH =           0.0000                   RCH =           0.0000     RCH-1                            

           TOTAL OUT =           0.3359             TOTAL OUT =       1.4003E-02

            IN - OUT =       4.6004E-12              IN - OUT =       1.3198E-13

 PERCENT DISCREPANCY =           0.00     PERCENT DISCREPANCY =           0.00




         TIME SUMMARY AT END OF TIME STEP    1 IN STRESS PERIOD   24
                    SECONDS     MINUTES      HOURS       DAYS        YEARS
                    -----------------------------------------------------------
   TIME STEP LENGTH  86400.      1440.0      24.000      1.0000     2.73785E-03
 STRESS PERIOD TIME  86400.      1440.0      24.000      1.0000     2.73785E-03
         TOTAL TIME 2.07360E+06  34560.      576.00      24.000     6.57084E-02


end timestep


start timestep kper="25" kstp="1" mode="normal"


 OUTPUT CONTROL FOR STRESS PERIOD 25 IS REPEATED USING SETTINGS FROM A PREVIOUS STRESS PERIOD.


 STRESS PERIOD 25 IS TRANSIENT

 UBDSV1 SAVING           STO-SS ON UNIT   1017 AT TIME STEP      1, STRESS PERIOD     25
 UBDSV1 SAVING     FLOW-JA-FACE ON UNIT   1017 AT TIME STEP      1, STRESS PERIOD     25
 UBDSV06 SAVING         DATA-SAT IN MODEL MODEL            PACKAGE NPF             CONNECTED TO MODEL MODEL            PACKAGE NPF              ON UNIT   1017 AT TIME STEP      1, STRESS PERIOD     25

 HEAD WILL BE SAVED ON UNIT 1016 AT END OF TIME STEP    1, STRESS PERIOD   25


  VOLUME BUDGET FOR ENTIRE MODEL AT END OF TIME STEP    1, STRESS PERIOD  25
  ---------------------------------------------------------------------------------------------------

     CUMULATIVE VOLUME      L**3       RATES FOR THIS TIME STEP      L**3/T          PACKAGE NAME    
     ------------------                 ------------------------                     ----------------

           IN:                                      IN:
           ---                                      ---
              STO-SS =           0.0000                STO-SS =           0.0000     STORAGE                          
                 RIV =           0.0000                   RIV =           0.0000     RIV-1                            
                 RCH =           0.3499                   RCH =       1.4005E-02     RCH-1                            

            TOTAL IN =           0.3499              TOTAL IN =       1.4005E-02

          OUT:                                     OUT:
          ----                                     ----
              STO-SS =           0.3499                STO-SS =       1.4005E-02     STORAGE                          
                 RIV =           0.0000                   RIV =           0.0000     RIV-1                            
                 RCH =           0.0000                   RCH =           0.0000     RCH-1                            

           TOTAL OUT =           0.3499             TOTAL OUT =       1.4005E-02

            IN - OUT =       4.8690E-12              IN - OUT =       2.6854E-13

 PERCENT DISCREPANCY =           0.00     PERCENT DISCREPANCY =           0.00




         TIME SUMMARY AT END OF TIME STEP    1 IN STRESS PERIOD   25
                    SECONDS     MINUTES      HOURS       DAYS        YEARS
                    -----------------------------------------------------------
   TIME STEP LENGTH  86400.      1440.0      24.000      1.0000     2.73785E-03
 STRESS PERIOD TIME  86400.      1440.0      24.000      1.0000     2.73785E-03
         TOTAL TIME 2.16000E+06  36000.      600.00      25.000     6.84463E-02


end timestep


start timestep kper="26" kstp="1" mode="normal"


 OUTPUT CONTROL FOR STRESS PERIOD 26 IS REPEATED USING SETTINGS FROM A PREVIOUS STRESS PERIOD.


 STRESS PERIOD 26 IS TRANSIENT

 UBDSV1 SAVING           STO-SS ON UNIT   1017 AT TIME STEP      1, STRESS PERIOD     26
 UBDSV1 SAVING     FLOW-JA-FACE ON UNIT   1017 AT TIME STEP      1, STRESS PERIOD     26
 UBDSV06 SAVING         DATA-SAT IN MODEL MODEL            PACKAGE NPF             CONNECTED TO MODEL MODEL            PACKAGE NPF              ON UNIT   1017 AT TIME STEP      1, STRESS PERIOD     26

 HEAD WILL BE SAVED ON UNIT 1016 AT END OF TIME STEP    1, STRESS PERIOD   26


  VOLUME BUDGET FOR ENTIRE MODEL AT END OF TIME STEP    1, STRESS PERIOD  26
  ---------------------------------------------------------------------------------------------------

     CUMULATIVE VOLUME      L**3       RATES FOR THIS TIME STEP      L**3/T          PACKAGE NAME    
     ------------------                 ------------------------                     ----------------

           IN:                                      IN:
           ---                                      ---
              STO-SS =           0.0000                STO-SS =           0.0000     STORAGE                          
                 RIV =           0.0000                   RIV =           0.0000     RIV-1                            
                 RCH =           0.3640                   RCH =       1.4007E-02     RCH-1                            

            TOTAL IN =           0.3640              TOTAL IN =       1.4007E-02

          OUT:                                     OUT:
          ----                                     ----
              STO-SS =           0.3640                STO-SS =       1.4007E-02     STORAGE                          
                 RIV =           0.0000                   RIV =           0.0000     RIV-1                            
                 RCH =           0.0000                   RCH =           0.0000     RCH-1                            

           TOTAL OUT =           0.3640             TOTAL OUT =       1.4007E-02

            IN - OUT =       4.9712E-12              IN - OUT =       1.0223E-13

 PERCENT DISCREPANCY =           0.00     PERCENT DISCREPANCY =           0.00




         TIME SUMMARY AT END OF TIME STEP    1 IN STRESS PERIOD   26
                    SECONDS     MINUTES      HOURS       DAYS        YEARS
                    -----------------------------------------------------------
   TIME STEP LENGTH  86400.      1440.0      24.000      1.0000     2.73785E-03
 STRESS PERIOD TIME  86400.      1440.0      24.000      1.0000     2.73785E-03
         TOTAL TIME 2.24640E+06  37440.      624.00      26.000     7.11841E-02


end timestep


start timestep kper="27" kstp="1" mode="normal"


 OUTPUT CONTROL FOR STRESS PERIOD 27 IS REPEATED USING SETTINGS FROM A PREVIOUS STRESS PERIOD.


 STRESS PERIOD 27 IS TRANSIENT

 UBDSV1 SAVING           STO-SS ON UNIT   1017 AT TIME STEP      1, STRESS PERIOD     27
 UBDSV1 SAVING     FLOW-JA-FACE ON UNIT   1017 AT TIME STEP      1, STRESS PERIOD     27
 UBDSV06 SAVING         DATA-SAT IN MODEL MODEL            PACKAGE NPF             CONNECTED TO MODEL MODEL            PACKAGE NPF              ON UNIT   1017 AT TIME STEP      1, STRESS PERIOD     27

 HEAD WILL BE SAVED ON UNIT 1016 AT END OF TIME STEP    1, STRESS PERIOD   27


[...]




         TIME SUMMARY AT END OF TIME STEP    1 IN STRESS PERIOD  113
                    SECONDS     MINUTES      HOURS       DAYS        YEARS
                    -----------------------------------------------------------
   TIME STEP LENGTH  86400.      1440.0      24.000      1.0000     2.73785E-03
 STRESS PERIOD TIME  86400.      1440.0      24.000      1.0000     2.73785E-03
         TOTAL TIME 9.76320E+06 1.62720E+05  2712.0      113.00     0.30938    


end timestep


start timestep kper="114" kstp="1" mode="normal"


 OUTPUT CONTROL FOR STRESS PERIOD 114 IS REPEATED USING SETTINGS FROM A PREVIOUS STRESS PERIOD.


 STRESS PERIOD 114 IS TRANSIENT

 UBDSV1 SAVING           STO-SS ON UNIT   1017 AT TIME STEP      1, STRESS PERIOD    114
 UBDSV1 SAVING     FLOW-JA-FACE ON UNIT   1017 AT TIME STEP      1, STRESS PERIOD    114
 UBDSV06 SAVING         DATA-SAT IN MODEL MODEL            PACKAGE NPF             CONNECTED TO MODEL MODEL            PACKAGE NPF              ON UNIT   1017 AT TIME STEP      1, STRESS PERIOD    114

 HEAD WILL BE SAVED ON UNIT 1016 AT END OF TIME STEP    1, STRESS PERIOD  114


  VOLUME BUDGET FOR ENTIRE MODEL AT END OF TIME STEP    1, STRESS PERIOD 114
  ---------------------------------------------------------------------------------------------------

     CUMULATIVE VOLUME      L**3       RATES FOR THIS TIME STEP      L**3/T          PACKAGE NAME    
     ------------------                 ------------------------                     ----------------

           IN:                                      IN:
           ---                                      ---
              STO-SS =           0.0000                STO-SS =           0.0000     STORAGE                          
                 RIV =           0.0000                   RIV =           0.0000     RIV-1                            
                 RCH =           2.2285                   RCH =       4.2387E-02     RCH-1                            

            TOTAL IN =           2.2285              TOTAL IN =       4.2387E-02

          OUT:                                     OUT:
          ----                                     ----
              STO-SS =           2.2285                STO-SS =       4.2387E-02     STORAGE                          
                 RIV =           0.0000                   RIV =           0.0000     RIV-1                            
                 RCH =           0.0000                   RCH =           0.0000     RCH-1                            

           TOTAL OUT =           2.2285             TOTAL OUT =       4.2387E-02

            IN - OUT =       1.9017E-11              IN - OUT =       4.2253E-13

 PERCENT DISCREPANCY =           0.00     PERCENT DISCREPANCY =           0.00




         TIME SUMMARY AT END OF TIME STEP    1 IN STRESS PERIOD  114
                    SECONDS     MINUTES      HOURS       DAYS        YEARS
                    -----------------------------------------------------------
   TIME STEP LENGTH  86400.      1440.0      24.000      1.0000     2.73785E-03
 STRESS PERIOD TIME  86400.      1440.0      24.000      1.0000     2.73785E-03
         TOTAL TIME 9.84960E+06 1.64160E+05  2736.0      114.00     0.31211    


end timestep


start timestep kper="115" kstp="1" mode="normal"


 OUTPUT CONTROL FOR STRESS PERIOD 115 IS REPEATED USING SETTINGS FROM A PREVIOUS STRESS PERIOD.


 STRESS PERIOD 115 IS TRANSIENT

 UBDSV1 SAVING           STO-SS ON UNIT   1017 AT TIME STEP      1, STRESS PERIOD    115
 UBDSV1 SAVING     FLOW-JA-FACE ON UNIT   1017 AT TIME STEP      1, STRESS PERIOD    115
 UBDSV06 SAVING         DATA-SAT IN MODEL MODEL            PACKAGE NPF             CONNECTED TO MODEL MODEL            PACKAGE NPF              ON UNIT   1017 AT TIME STEP      1, STRESS PERIOD    115

 HEAD WILL BE SAVED ON UNIT 1016 AT END OF TIME STEP    1, STRESS PERIOD  115


  VOLUME BUDGET FOR ENTIRE MODEL AT END OF TIME STEP    1, STRESS PERIOD 115
  ---------------------------------------------------------------------------------------------------

     CUMULATIVE VOLUME      L**3       RATES FOR THIS TIME STEP      L**3/T          PACKAGE NAME    
     ------------------                 ------------------------                     ----------------

           IN:                                      IN:
           ---                                      ---
              STO-SS =           0.0000                STO-SS =           0.0000     STORAGE                          
                 RIV =           0.0000                   RIV =           0.0000     RIV-1                            
                 RCH =           2.2718                   RCH =       4.3281E-02     RCH-1                            

            TOTAL IN =           2.2718              TOTAL IN =       4.3281E-02

          OUT:                                     OUT:
          ----                                     ----
              STO-SS =           2.2718                STO-SS =       4.3281E-02     STORAGE                          
                 RIV =           0.0000                   RIV =           0.0000     RIV-1                            
                 RCH =           0.0000                   RCH =           0.0000     RCH-1                            

           TOTAL OUT =           2.2718             TOTAL OUT =       4.3281E-02

            IN - OUT =       1.9414E-11              IN - OUT =       3.9788E-13

 PERCENT DISCREPANCY =           0.00     PERCENT DISCREPANCY =           0.00




         TIME SUMMARY AT END OF TIME STEP    1 IN STRESS PERIOD  115
                    SECONDS     MINUTES      HOURS       DAYS        YEARS
                    -----------------------------------------------------------
   TIME STEP LENGTH  86400.      1440.0      24.000      1.0000     2.73785E-03
 STRESS PERIOD TIME  86400.      1440.0      24.000      1.0000     2.73785E-03
         TOTAL TIME 9.93600E+06 1.65600E+05  2760.0      115.00     0.31485    


end timestep


start timestep kper="116" kstp="1" mode="normal"


 OUTPUT CONTROL FOR STRESS PERIOD 116 IS REPEATED USING SETTINGS FROM A PREVIOUS STRESS PERIOD.


 STRESS PERIOD 116 IS TRANSIENT

 UBDSV1 SAVING           STO-SS ON UNIT   1017 AT TIME STEP      1, STRESS PERIOD    116
 UBDSV1 SAVING     FLOW-JA-FACE ON UNIT   1017 AT TIME STEP      1, STRESS PERIOD    116
 UBDSV06 SAVING         DATA-SAT IN MODEL MODEL            PACKAGE NPF             CONNECTED TO MODEL MODEL            PACKAGE NPF              ON UNIT   1017 AT TIME STEP      1, STRESS PERIOD    116

 HEAD WILL BE SAVED ON UNIT 1016 AT END OF TIME STEP    1, STRESS PERIOD  116


  VOLUME BUDGET FOR ENTIRE MODEL AT END OF TIME STEP    1, STRESS PERIOD 116
  ---------------------------------------------------------------------------------------------------

     CUMULATIVE VOLUME      L**3       RATES FOR THIS TIME STEP      L**3/T          PACKAGE NAME    
     ------------------                 ------------------------                     ----------------

           IN:                                      IN:
           ---                                      ---
              STO-SS =           0.0000                STO-SS =           0.0000     STORAGE                          
                 RIV =           0.0000                   RIV =           0.0000     RIV-1                            
                 RCH =           2.3164                   RCH =       4.4604E-02     RCH-1                            

            TOTAL IN =           2.3164              TOTAL IN =       4.4604E-02

          OUT:                                     OUT:
          ----                                     ----
              STO-SS =           2.3164                STO-SS =       4.4604E-02     STORAGE                          
                 RIV =           0.0000                   RIV =           0.0000     RIV-1                            
                 RCH =           0.0000                   RCH =           0.0000     RCH-1                            

           TOTAL OUT =           2.3164             TOTAL OUT =       4.4604E-02

            IN - OUT =       1.9746E-11              IN - OUT =       3.3127E-13

 PERCENT DISCREPANCY =           0.00     PERCENT DISCREPANCY =           0.00




         TIME SUMMARY AT END OF TIME STEP    1 IN STRESS PERIOD  116
                    SECONDS     MINUTES      HOURS       DAYS        YEARS
                    -----------------------------------------------------------
   TIME STEP LENGTH  86400.      1440.0      24.000      1.0000     2.73785E-03
 STRESS PERIOD TIME  86400.      1440.0      24.000      1.0000     2.73785E-03
         TOTAL TIME 1.00224E+07 1.67040E+05  2784.0      116.00     0.31759    


end timestep


start timestep kper="117" kstp="1" mode="normal"


 OUTPUT CONTROL FOR STRESS PERIOD 117 IS REPEATED USING SETTINGS FROM A PREVIOUS STRESS PERIOD.


 STRESS PERIOD 117 IS TRANSIENT

 UBDSV1 SAVING           STO-SS ON UNIT   1017 AT TIME STEP      1, STRESS PERIOD    117
 UBDSV1 SAVING     FLOW-JA-FACE ON UNIT   1017 AT TIME STEP      1, STRESS PERIOD    117
 UBDSV06 SAVING         DATA-SAT IN MODEL MODEL            PACKAGE NPF             CONNECTED TO MODEL MODEL            PACKAGE NPF              ON UNIT   1017 AT TIME STEP      1, STRESS PERIOD    117

 HEAD WILL BE SAVED ON UNIT 1016 AT END OF TIME STEP    1, STRESS PERIOD  117


  VOLUME BUDGET FOR ENTIRE MODEL AT END OF TIME STEP    1, STRESS PERIOD 117
  ---------------------------------------------------------------------------------------------------

     CUMULATIVE VOLUME      L**3       RATES FOR THIS TIME STEP      L**3/T          PACKAGE NAME    
     ------------------                 ------------------------                     ----------------

           IN:                                      IN:
           ---                                      ---
              STO-SS =           0.0000                STO-SS =           0.0000     STORAGE                          
                 RIV =           0.0000                   RIV =           0.0000     RIV-1                            
                 RCH =           2.3624                   RCH =       4.5993E-02     RCH-1                            

            TOTAL IN =           2.3624              TOTAL IN =       4.5993E-02

          OUT:                                     OUT:
          ----                                     ----
              STO-SS =           2.3624                STO-SS =       4.5993E-02     STORAGE                          
                 RIV =           0.0000                   RIV =           0.0000     RIV-1                            
                 RCH =           0.0000                   RCH =           0.0000     RCH-1                            

           TOTAL OUT =           2.3624             TOTAL OUT =       4.5993E-02

            IN - OUT =       2.0024E-11              IN - OUT =       2.7831E-13

 PERCENT DISCREPANCY =           0.00     PERCENT DISCREPANCY =           0.00




         TIME SUMMARY AT END OF TIME STEP    1 IN STRESS PERIOD  117
                    SECONDS     MINUTES      HOURS       DAYS        YEARS
                    -----------------------------------------------------------
   TIME STEP LENGTH  86400.      1440.0      24.000      1.0000     2.73785E-03
 STRESS PERIOD TIME  86400.      1440.0      24.000      1.0000     2.73785E-03
         TOTAL TIME 1.01088E+07 1.68480E+05  2808.0      117.00     0.32033    


end timestep


start timestep kper="118" kstp="1" mode="normal"


 OUTPUT CONTROL FOR STRESS PERIOD 118 IS REPEATED USING SETTINGS FROM A PREVIOUS STRESS PERIOD.


 STRESS PERIOD 118 IS TRANSIENT

 UBDSV1 SAVING           STO-SS ON UNIT   1017 AT TIME STEP      1, STRESS PERIOD    118
 UBDSV1 SAVING     FLOW-JA-FACE ON UNIT   1017 AT TIME STEP      1, STRESS PERIOD    118
 UBDSV06 SAVING         DATA-SAT IN MODEL MODEL            PACKAGE NPF             CONNECTED TO MODEL MODEL            PACKAGE NPF              ON UNIT   1017 AT TIME STEP      1, STRESS PERIOD    118

 HEAD WILL BE SAVED ON UNIT 1016 AT END OF TIME STEP    1, STRESS PERIOD  118


  VOLUME BUDGET FOR ENTIRE MODEL AT END OF TIME STEP    1, STRESS PERIOD 118
  ---------------------------------------------------------------------------------------------------

     CUMULATIVE VOLUME      L**3       RATES FOR THIS TIME STEP      L**3/T          PACKAGE NAME    
     ------------------                 ------------------------                     ----------------

           IN:                                      IN:
           ---                                      ---
              STO-SS =           0.0000                STO-SS =           0.0000     STORAGE                          
                 RIV =           0.0000                   RIV =           0.0000     RIV-1                            
                 RCH =           2.4098                   RCH =       4.7420E-02     RCH-1                            

            TOTAL IN =           2.4098              TOTAL IN =       4.7420E-02

          OUT:                                     OUT:
          ----                                     ----
              STO-SS =           2.4098                STO-SS =       4.7420E-02     STORAGE                          
                 RIV =           0.0000                   RIV =           0.0000     RIV-1                            
                 RCH =           0.0000                   RCH =           0.0000     RCH-1                            

           TOTAL OUT =           2.4098             TOTAL OUT =       4.7420E-02

            IN - OUT =       1.9900E-11              IN - OUT =      -1.2392E-13

 PERCENT DISCREPANCY =           0.00     PERCENT DISCREPANCY =          -0.00




         TIME SUMMARY AT END OF TIME STEP    1 IN STRESS PERIOD  118
                    SECONDS     MINUTES      HOURS       DAYS        YEARS
                    -----------------------------------------------------------
   TIME STEP LENGTH  86400.      1440.0      24.000      1.0000     2.73785E-03
 STRESS PERIOD TIME  86400.      1440.0      24.000      1.0000     2.73785E-03
         TOTAL TIME 1.01952E+07 1.69920E+05  2832.0      118.00     0.32307    


end timestep


start timestep kper="119" kstp="1" mode="normal"


 OUTPUT CONTROL FOR STRESS PERIOD 119 IS REPEATED USING SETTINGS FROM A PREVIOUS STRESS PERIOD.


 STRESS PERIOD 119 IS TRANSIENT

 UBDSV1 SAVING           STO-SS ON UNIT   1017 AT TIME STEP      1, STRESS PERIOD    119
 UBDSV1 SAVING     FLOW-JA-FACE ON UNIT   1017 AT TIME STEP      1, STRESS PERIOD    119
 UBDSV06 SAVING         DATA-SAT IN MODEL MODEL            PACKAGE NPF             CONNECTED TO MODEL MODEL            PACKAGE NPF              ON UNIT   1017 AT TIME STEP      1, STRESS PERIOD    119

 HEAD WILL BE SAVED ON UNIT 1016 AT END OF TIME STEP    1, STRESS PERIOD  119


  VOLUME BUDGET FOR ENTIRE MODEL AT END OF TIME STEP    1, STRESS PERIOD 119
  ---------------------------------------------------------------------------------------------------

     CUMULATIVE VOLUME      L**3       RATES FOR THIS TIME STEP      L**3/T          PACKAGE NAME    
     ------------------                 ------------------------                     ----------------

           IN:                                      IN:
           ---                                      ---
              STO-SS =           0.0000                STO-SS =           0.0000     STORAGE                          
                 RIV =           0.0000                   RIV =           0.0000     RIV-1                            
                 RCH =           2.4587                   RCH =       4.8883E-02     RCH-1                            

            TOTAL IN =           2.4587              TOTAL IN =       4.8883E-02

          OUT:                                     OUT:
          ----                                     ----
              STO-SS =           2.4587                STO-SS =       4.8883E-02     STORAGE                          
                 RIV =           0.0000                   RIV =           0.0000     RIV-1                            
                 RCH =           0.0000                   RCH =           0.0000     RCH-1                            

           TOTAL OUT =           2.4587             TOTAL OUT =       4.8883E-02

            IN - OUT =       2.0128E-11              IN - OUT =       2.2869E-13

 PERCENT DISCREPANCY =           0.00     PERCENT DISCREPANCY =           0.00




         TIME SUMMARY AT END OF TIME STEP    1 IN STRESS PERIOD  119
                    SECONDS     MINUTES      HOURS       DAYS        YEARS
                    -----------------------------------------------------------
   TIME STEP LENGTH  86400.      1440.0      24.000      1.0000     2.73785E-03
 STRESS PERIOD TIME  86400.      1440.0      24.000      1.0000     2.73785E-03
         TOTAL TIME 1.02816E+07 1.71360E+05  2856.0      119.00     0.32580    


end timestep


start timestep kper="120" kstp="1" mode="normal"


 OUTPUT CONTROL FOR STRESS PERIOD 120 IS REPEATED USING SETTINGS FROM A PREVIOUS STRESS PERIOD.


 STRESS PERIOD 120 IS TRANSIENT

 UBDSV1 SAVING           STO-SS ON UNIT   1017 AT TIME STEP      1, STRESS PERIOD    120
 UBDSV1 SAVING     FLOW-JA-FACE ON UNIT   1017 AT TIME STEP      1, STRESS PERIOD    120
 UBDSV06 SAVING         DATA-SAT IN MODEL MODEL            PACKAGE NPF             CONNECTED TO MODEL MODEL            PACKAGE NPF              ON UNIT   1017 AT TIME STEP      1, STRESS PERIOD    120

 HEAD WILL BE SAVED ON UNIT 1016 AT END OF TIME STEP    1, STRESS PERIOD  120


  VOLUME BUDGET FOR ENTIRE MODEL AT END OF TIME STEP    1, STRESS PERIOD 120
  ---------------------------------------------------------------------------------------------------

     CUMULATIVE VOLUME      L**3       RATES FOR THIS TIME STEP      L**3/T          PACKAGE NAME    
     ------------------                 ------------------------                     ----------------

           IN:                                      IN:
           ---                                      ---
              STO-SS =           0.0000                STO-SS =           0.0000     STORAGE                          
                 RIV =           0.0000                   RIV =           0.0000     RIV-1                            
                 RCH =           2.5090                   RCH =       5.0382E-02     RCH-1                            

            TOTAL IN =           2.5090              TOTAL IN =       5.0382E-02

          OUT:                                     OUT:
          ----                                     ----
              STO-SS =           2.5090                STO-SS =       5.0382E-02     STORAGE                          
                 RIV =           0.0000                   RIV =           0.0000     RIV-1                            
                 RCH =           0.0000                   RCH =           0.0000     RCH-1                            

           TOTAL OUT =           2.5090             TOTAL OUT =       5.0382E-02

            IN - OUT =       2.0333E-11              IN - OUT =       2.0470E-13

 PERCENT DISCREPANCY =           0.00     PERCENT DISCREPANCY =           0.00




         TIME SUMMARY AT END OF TIME STEP    1 IN STRESS PERIOD  120
                    SECONDS     MINUTES      HOURS       DAYS        YEARS
                    -----------------------------------------------------------
   TIME STEP LENGTH  86400.      1440.0      24.000      1.0000     2.73785E-03
 STRESS PERIOD TIME  86400.      1440.0      24.000      1.0000     2.73785E-03
         TOTAL TIME 1.03680E+07 1.72800E+05  2880.0      120.00     0.32854    


end timestep

