                                   MODFLOW 6
                U.S. GEOLOGICAL SURVEY MODULAR HYDROLOGIC MODEL
                          GROUNDWATER FLOW MODEL (GWF)
                            VERSION 6.5.0 05/23/2024

   MODFLOW 6 compiled Jun 14 2024 13:48:17 with Intel(R) Fortran Intel(R) 64
  Compiler Classic for applications running on Intel(R) 64, Version 2021.12.0
                             Build 20240222_000000

This software has been approved for release by the U.S. Geological 
Survey (USGS). Although the software has been subjected to rigorous 
review, the USGS reserves the right to update the software as needed 
pursuant to further analysis and review. No warranty, expressed or 
implied, is made by the USGS or the U.S. Government as to the 
functionality of the software and related material nor shall the 
fact of release constitute any such warranty. Furthermore, the 
software is released on condition that neither the USGS nor the U.S. 
Government shall be held liable for any damages resulting from its 
authorized or unauthorized use. Also refer to the USGS Water 
Resources Software User Rights Notice for complete use, copyright, 
and distribution information.


As a work of the United States Government, this USGS product is 
in the public domain within the United States. You can copy, 
modify, distribute, and perform the work, even for commercial 
purposes, all without asking permission. Additionally, USGS 
waives copyright and related rights in the work worldwide 
through CC0 1.0 Universal Public Domain Dedication 
(https://creativecommons.org/publicdomain/zero/1.0/).

The following GNU Lesser General Public License (LGPL) libraries
are used in this USGS product:

    SPARSKIT version 2.0
      ilut, luson, and qsplit 
      (https://www-users.cse.umn.edu/~saad/software/SPARSKIT/)

    RCM - Reverse Cuthill McKee Ordering
      (https://people.math.sc.edu/Burkardt/f_src/rcm/rcm.html)

    BLAS - Basic Linear Algebra Subprograms Level 1
      (https://people.math.sc.edu/Burkardt/f_src/blas1_d/blas1_d.html)

    SPARSEKIT - Sparse Matrix Utility Package
      amux, dperm, dvperm, rperm, and cperm
      (https://people.sc.fsu.edu/~jburkardt/f77_src/sparsekit/sparsekit.html)

The following BSD-3 License libraries are used in this USGS product:

    Modern Fortran DAG Library
      Copyright (c) 2018, Jacob Williams
      All rights reserved.
      (https://github.com/jacobwilliams/daglib)

MODFLOW 6 compiler options: /nologo /O2 /fpp /warn:declarations /warn:unused
/fpe:0 /module:obj_temp\mf6core\x64\Release\
/object:obj_temp\mf6core\x64\Release\
/Fdobj_temp\mf6core\x64\Release\vc170.pdb /libs:static /threads /c
"/Qlocation,link,C:\Program Files\Microsoft Visual
Studio\2022\Community\VC\Tools\MSVC\14.40.33807\bin\HostX64\x64" /Qm64

System command used to initiate simulation:
d:\werkmap\LHM_coupling\.pixi\envs\default\python.exe d:\werkmap\prototype_metaswap\MegaSWAP\run.py

MODFLOW was compiled using uniform precision.

Real Variables
  KIND: 8
  TINY (smallest non-zero value):    2.225074-308
  HUGE (largest value):    1.797693+308
  PRECISION: 15
  SIZE IN BITS: 64

Integer Variables
  KIND: 4
  HUGE (largest value): 2147483647
  SIZE IN BITS: 32

Long Integer Variables
  KIND: 8
  HUGE (largest value): 9223372036854775807
  SIZE IN BITS: 64

Logical Variables
  KIND: 4
  SIZE IN BITS: 32
 
 NAMEFILE OPTIONS:
 END NAMEFILE OPTIONS:

 DIS -- STRUCTURED GRID DISCRETIZATION PACKAGE, VERSION 2 : 3/27/2014 - INPUT READ FROM MEMPATH: __INPUT__/MODEL/DIS                               


 NPF -- NODE PROPERTY FLOW PACKAGE, VERSION 1, 3/30/2015 INPUT READ FROM MEMPATH: __INPUT__/MODEL/NPF                               


 IC -- Initial Conditions Package, Version 8, 3/28/2015 input read from mempath: __INPUT__/MODEL/IC                                


 Setting Discretization Options
    Model length unit [0=UND, 1=FEET, 2=METERS, 3=CENTIMETERS] set as 2
 End Setting Discretization Options

 Setting Discretization Dimensions
    NLAY = 5
    NROW = 1
    NCOL = 1
 End Setting Discretization Dimensions

 Setting Discretization Griddata
    DELR set from input file
    DELC set from input file
    TOP set from input file
    BOTM set from input file
 End Setting Discretization Griddata

 Setting NPF Options
    Cell-by-cell flow information will be saved to binary file whenever ICBCFL is not zero.
    Saturation will be written to DATA-SAT in budget file when requested.
 End Setting NPF Options

 Setting NPF Griddata
    ICELLTYPE set from input file
    K set from input file
    K33 not provided.  Setting K33 = K.
    K22 not provided.  Setting K22 = K.
 End Setting NPF Griddata


 WEL   -- WEL PACKAGE, VERSION 8, 2/22/2014 INPUT READ FROM MEMPATH: __INPUT__/MODEL/WEL-1                             

 PROCESSING WEL BASE OPTIONS
 END OF WEL BASE OPTIONS

 PROCESSING WEL OPTIONS
 END OF WEL OPTIONS

 PROCESSING WEL BASE DIMENSIONS
    MAXBOUND =       1
 END OF WEL BASE DIMENSIONS

 GHB   -- GHB PACKAGE, VERSION 8, 2/22/2014 INPUT READ FROM MEMPATH: __INPUT__/MODEL/GHB-1                             

 PROCESSING GHB BASE OPTIONS
    FLOWS WILL BE SAVED TO BUDGET FILE SPECIFIED IN OUTPUT CONTROL
    LISTS OF GHB CELLS WILL BE PRINTED.
    GHB FLOWS WILL BE PRINTED TO LISTING FILE.
 END OF GHB BASE OPTIONS

 PROCESSING GHB OPTIONS
 END OF GHB OPTIONS

 PROCESSING GHB BASE DIMENSIONS
    MAXBOUND =       1
 END OF GHB BASE DIMENSIONS

 RCH   -- RCH PACKAGE, VERSION 8, 2/22/2014 INPUT READ FROM MEMPATH: __INPUT__/MODEL/RCH-1                             

 PROCESSING RCH BASE OPTIONS
 END OF RCH BASE OPTIONS

 PROCESSING RCH OPTIONS
 END OF RCH OPTIONS

 PROCESSING RCH BASE DIMENSIONS
    MAXBOUND =       1
 END OF RCH BASE DIMENSIONS
    STRT set from input file

 STO -- STORAGE PACKAGE, VERSION 1, 5/19/2014 INPUT READ FROM UNIT 1007


 PROCESSING STORAGE OPTIONS
    CELL-BY-CELL FLOW INFORMATION WILL BE SAVED TO BINARY FILE WHENEVER ICBCFL IS NOT ZERO.
    STORAGECOEFFICIENT OPTION:
 Read storage coefficient rather than specific storage
 END OF STORAGE OPTIONS
 PROCESSING GRIDDATA

                 ICONVERT = 0

         SPECIFIC STORAGE =  0.2000000     FOR LAYER 1

         SPECIFIC STORAGE =  0.1000000E-02 FOR LAYER 2

         SPECIFIC STORAGE =  0.1000000E-02 FOR LAYER 3

         SPECIFIC STORAGE =  0.1000000E-02 FOR LAYER 4

         SPECIFIC STORAGE =  0.1000000E-02 FOR LAYER 5
 END PROCESSING GRIDDATA
    BINARY GRID INFORMATION WILL BE WRITTEN TO:
      UNIT NUMBER: 1016
      FILE NAME: model.dis.grb

 OPENED model.dis.grb
 FILE TYPE:DATA(BINARY)   UNIT 1016   STATUS:REPLACE             
 FORMAT:UNFORMATTED            ACCESS:STREAM              
 ACTION:READWRITE           

      THE LAST TIME STEP WILL BE PRINTED
      THE LAST TIME STEP WILL BE PRINTED

 PROCESSING OC OPTIONS

    HEAD INFORMATION WILL BE WRITTEN TO:
      UNIT NUMBER: 1017
      FILE NAME: flow.hds

 OPENED flow.hds
 FILE TYPE:DATA(BINARY)   UNIT 1017   STATUS:REPLACE             
 FORMAT:UNFORMATTED            ACCESS:STREAM              
 ACTION:READWRITE           

    BUDGET INFORMATION WILL BE WRITTEN TO:
      UNIT NUMBER: 1018
      FILE NAME: flow.cbc

 OPENED flow.cbc
 FILE TYPE:DATA(BINARY)   UNIT 1018   STATUS:REPLACE             
 FORMAT:UNFORMATTED            ACCESS:STREAM              
 ACTION:READWRITE           

 END OF OC OPTIONS

start timestep kper="1" kstp="1" mode="normal"


 BEGIN READING OUTPUT CONTROL FOR STRESS PERIOD 1
      ALL TIME STEPS WILL BE SAVED
      ALL TIME STEPS WILL BE SAVED

 END READING OUTPUT CONTROL FOR STRESS PERIOD 1


 PROCESSING STORAGE PERIOD DATA
 END PROCESSING STORAGE PERIOD DATA


 STRESS PERIOD 1 IS TRANSIENT

 ----------------------------------
  GHB NO.    LAYER    ROW     COL  
 ----------------------------------
     1         5       1       1   
 ----------------------------------


 UBDSV1 SAVING           STO-SS ON UNIT   1018 AT TIME STEP      1, STRESS PERIOD      1
 UBDSV1 SAVING     FLOW-JA-FACE ON UNIT   1018 AT TIME STEP      1, STRESS PERIOD      1
 UBDSV06 SAVING         DATA-SAT IN MODEL MODEL            PACKAGE NPF             CONNECTED TO MODEL MODEL            PACKAGE NPF              ON UNIT   1018 AT TIME STEP      1, STRESS PERIOD      1
 UBDSV06 SAVING              GHB IN MODEL MODEL            PACKAGE MODEL           CONNECTED TO MODEL MODEL            PACKAGE GHB-1            ON UNIT   1018 AT TIME STEP      1, STRESS PERIOD      1

 GHB PACKAGE (GHB-1) FLOW RATES   PERIOD      1   STEP        1
 -----------------------------------------------
   NUMBER   CELLID                    RATE      
 -----------------------------------------------
     1      (5,1,1)              -1.62196964E-03
 -----------------------------------------------




 HEAD WILL BE SAVED ON UNIT 1017 AT END OF TIME STEP    1, STRESS PERIOD    1


  VOLUME BUDGET FOR ENTIRE MODEL AT END OF TIME STEP    1, STRESS PERIOD   1
  ---------------------------------------------------------------------------------------------------

     CUMULATIVE VOLUME      L**3       RATES FOR THIS TIME STEP      L**3/T          PACKAGE NAME    
     ------------------                 ------------------------                     ----------------

           IN:                                      IN:
           ---                                      ---
              STO-SS =           0.0000                STO-SS =           0.0000     STORAGE                          
                 WEL =           0.0000                   WEL =           0.0000     WEL-1                            
                 GHB =           0.0000                   GHB =           0.0000     GHB-1                            
                 RCH =       1.6639E-02                   RCH =       1.6639E-02     RCH-1                            

            TOTAL IN =       1.6639E-02              TOTAL IN =       1.6639E-02

          OUT:                                     OUT:
          ----                                     ----
              STO-SS =       1.5017E-02                STO-SS =       1.5017E-02     STORAGE                          
                 WEL =           0.0000                   WEL =           0.0000     WEL-1                            
                 GHB =       1.6220E-03                   GHB =       1.6220E-03     GHB-1                            
                 RCH =           0.0000                   RCH =           0.0000     RCH-1                            

           TOTAL OUT =       1.6639E-02             TOTAL OUT =       1.6639E-02

            IN - OUT =      -3.2992E-10              IN - OUT =      -3.2992E-10

 PERCENT DISCREPANCY =          -0.00     PERCENT DISCREPANCY =          -0.00




         TIME SUMMARY AT END OF TIME STEP    1 IN STRESS PERIOD    1
                    SECONDS     MINUTES      HOURS       DAYS        YEARS
                    -----------------------------------------------------------
   TIME STEP LENGTH  86400.      1440.0      24.000      1.0000     2.73785E-03
 STRESS PERIOD TIME  86400.      1440.0      24.000      1.0000     2.73785E-03
         TOTAL TIME  86400.      1440.0      24.000      1.0000     2.73785E-03


end timestep


start timestep kper="2" kstp="1" mode="normal"


 END OF FILE DETECTED IN OUTPUT CONTROL.
 CURRENT OUTPUT CONTROL SETTINGS WILL BE 
 REPEATED UNTIL THE END OF THE SIMULATION.

 OUTPUT CONTROL FOR STRESS PERIOD 2 IS REPEATED USING SETTINGS FROM A PREVIOUS STRESS PERIOD.


 STRESS PERIOD 2 IS TRANSIENT

 UBDSV1 SAVING           STO-SS ON UNIT   1018 AT TIME STEP      1, STRESS PERIOD      2
 UBDSV1 SAVING     FLOW-JA-FACE ON UNIT   1018 AT TIME STEP      1, STRESS PERIOD      2
 UBDSV06 SAVING         DATA-SAT IN MODEL MODEL            PACKAGE NPF             CONNECTED TO MODEL MODEL            PACKAGE NPF              ON UNIT   1018 AT TIME STEP      1, STRESS PERIOD      2
 UBDSV06 SAVING              GHB IN MODEL MODEL            PACKAGE MODEL           CONNECTED TO MODEL MODEL            PACKAGE GHB-1            ON UNIT   1018 AT TIME STEP      1, STRESS PERIOD      2

 GHB PACKAGE (GHB-1) FLOW RATES   PERIOD      2   STEP        1
 -----------------------------------------------
   NUMBER   CELLID                    RATE      
 -----------------------------------------------
     1      (5,1,1)              -3.75666291E-03
 -----------------------------------------------




 HEAD WILL BE SAVED ON UNIT 1017 AT END OF TIME STEP    1, STRESS PERIOD    2


  VOLUME BUDGET FOR ENTIRE MODEL AT END OF TIME STEP    1, STRESS PERIOD   2
  ---------------------------------------------------------------------------------------------------

     CUMULATIVE VOLUME      L**3       RATES FOR THIS TIME STEP      L**3/T          PACKAGE NAME    
     ------------------                 ------------------------                     ----------------

           IN:                                      IN:
           ---                                      ---
              STO-SS =           0.0000                STO-SS =           0.0000     STORAGE                          
                 WEL =           0.0000                   WEL =           0.0000     WEL-1                            
                 GHB =           0.0000                   GHB =           0.0000     GHB-1                            
                 RCH =       3.3270E-02                   RCH =       1.6631E-02     RCH-1                            

            TOTAL IN =       3.3270E-02              TOTAL IN =       1.6631E-02

          OUT:                                     OUT:
          ----                                     ----
              STO-SS =       2.7891E-02                STO-SS =       1.2875E-02     STORAGE                          
                 WEL =           0.0000                   WEL =           0.0000     WEL-1                            
                 GHB =       5.3786E-03                   GHB =       3.7567E-03     GHB-1                            
                 RCH =           0.0000                   RCH =           0.0000     RCH-1                            

           TOTAL OUT =       3.3270E-02             TOTAL OUT =       1.6631E-02

            IN - OUT =      -3.2921E-10              IN - OUT =       7.1840E-13

 PERCENT DISCREPANCY =          -0.00     PERCENT DISCREPANCY =           0.00




         TIME SUMMARY AT END OF TIME STEP    1 IN STRESS PERIOD    2
                    SECONDS     MINUTES      HOURS       DAYS        YEARS
                    -----------------------------------------------------------
   TIME STEP LENGTH  86400.      1440.0      24.000      1.0000     2.73785E-03
 STRESS PERIOD TIME  86400.      1440.0      24.000      1.0000     2.73785E-03
         TOTAL TIME 1.72800E+05  2880.0      48.000      2.0000     5.47570E-03


end timestep


start timestep kper="3" kstp="1" mode="normal"


 OUTPUT CONTROL FOR STRESS PERIOD 3 IS REPEATED USING SETTINGS FROM A PREVIOUS STRESS PERIOD.


 STRESS PERIOD 3 IS TRANSIENT

 UBDSV1 SAVING           STO-SS ON UNIT   1018 AT TIME STEP      1, STRESS PERIOD      3
 UBDSV1 SAVING     FLOW-JA-FACE ON UNIT   1018 AT TIME STEP      1, STRESS PERIOD      3
 UBDSV06 SAVING         DATA-SAT IN MODEL MODEL            PACKAGE NPF             CONNECTED TO MODEL MODEL            PACKAGE NPF              ON UNIT   1018 AT TIME STEP      1, STRESS PERIOD      3
 UBDSV06 SAVING              GHB IN MODEL MODEL            PACKAGE MODEL           CONNECTED TO MODEL MODEL            PACKAGE GHB-1            ON UNIT   1018 AT TIME STEP      1, STRESS PERIOD      3

 GHB PACKAGE (GHB-1) FLOW RATES   PERIOD      3   STEP        1
 -----------------------------------------------
   NUMBER   CELLID                    RATE      
 -----------------------------------------------
     1      (5,1,1)              -6.39418451E-03
 -----------------------------------------------




 HEAD WILL BE SAVED ON UNIT 1017 AT END OF TIME STEP    1, STRESS PERIOD    3


  VOLUME BUDGET FOR ENTIRE MODEL AT END OF TIME STEP    1, STRESS PERIOD   3
  ---------------------------------------------------------------------------------------------------

     CUMULATIVE VOLUME      L**3       RATES FOR THIS TIME STEP      L**3/T          PACKAGE NAME    
     ------------------                 ------------------------                     ----------------

           IN:                                      IN:
           ---                                      ---
              STO-SS =           0.0000                STO-SS =           0.0000     STORAGE                          
                 WEL =           0.0000                   WEL =           0.0000     WEL-1                            
                 GHB =           0.0000                   GHB =           0.0000     GHB-1                            
                 RCH =       4.9886E-02                   RCH =       1.6616E-02     RCH-1                            

            TOTAL IN =       4.9886E-02              TOTAL IN =       1.6616E-02

          OUT:                                     OUT:
          ----                                     ----
              STO-SS =       3.8113E-02                STO-SS =       1.0222E-02     STORAGE                          
                 WEL =           0.0000                   WEL =           0.0000     WEL-1                            
                 GHB =       1.1773E-02                   GHB =       6.3942E-03     GHB-1                            
                 RCH =           0.0000                   RCH =           0.0000     RCH-1                            

           TOTAL OUT =       4.9886E-02             TOTAL OUT =       1.6616E-02

            IN - OUT =      -3.4137E-10              IN - OUT =      -1.2164E-11

 PERCENT DISCREPANCY =          -0.00     PERCENT DISCREPANCY =          -0.00




         TIME SUMMARY AT END OF TIME STEP    1 IN STRESS PERIOD    3
                    SECONDS     MINUTES      HOURS       DAYS        YEARS
                    -----------------------------------------------------------
   TIME STEP LENGTH  86400.      1440.0      24.000      1.0000     2.73785E-03
 STRESS PERIOD TIME  86400.      1440.0      24.000      1.0000     2.73785E-03
         TOTAL TIME 2.59200E+05  4320.0      72.000      3.0000     8.21355E-03


end timestep


start timestep kper="4" kstp="1" mode="normal"


 OUTPUT CONTROL FOR STRESS PERIOD 4 IS REPEATED USING SETTINGS FROM A PREVIOUS STRESS PERIOD.


 STRESS PERIOD 4 IS TRANSIENT

 UBDSV1 SAVING           STO-SS ON UNIT   1018 AT TIME STEP      1, STRESS PERIOD      4
 UBDSV1 SAVING     FLOW-JA-FACE ON UNIT   1018 AT TIME STEP      1, STRESS PERIOD      4
 UBDSV06 SAVING         DATA-SAT IN MODEL MODEL            PACKAGE NPF             CONNECTED TO MODEL MODEL            PACKAGE NPF              ON UNIT   1018 AT TIME STEP      1, STRESS PERIOD      4
 UBDSV06 SAVING              GHB IN MODEL MODEL            PACKAGE MODEL           CONNECTED TO MODEL MODEL            PACKAGE GHB-1            ON UNIT   1018 AT TIME STEP      1, STRESS PERIOD      4

 GHB PACKAGE (GHB-1) FLOW RATES   PERIOD      4   STEP        1
 -----------------------------------------------
   NUMBER   CELLID                    RATE      
 -----------------------------------------------
     1      (5,1,1)              -9.02439447E-03
 -----------------------------------------------




 HEAD WILL BE SAVED ON UNIT 1017 AT END OF TIME STEP    1, STRESS PERIOD    4


  VOLUME BUDGET FOR ENTIRE MODEL AT END OF TIME STEP    1, STRESS PERIOD   4
  ---------------------------------------------------------------------------------------------------

     CUMULATIVE VOLUME      L**3       RATES FOR THIS TIME STEP      L**3/T          PACKAGE NAME    
     ------------------                 ------------------------                     ----------------

           IN:                                      IN:
           ---                                      ---
              STO-SS =           0.0000                STO-SS =           0.0000     STORAGE                          
                 WEL =           0.0000                   WEL =           0.0000     WEL-1                            
                 GHB =           0.0000                   GHB =           0.0000     GHB-1                            
                 RCH =       6.6497E-02                   RCH =       1.6610E-02     RCH-1                            

            TOTAL IN =       6.6497E-02              TOTAL IN =       1.6610E-02

          OUT:                                     OUT:
          ----                                     ----
              STO-SS =       4.5699E-02                STO-SS =       7.5860E-03     STORAGE                          
                 WEL =           0.0000                   WEL =           0.0000     WEL-1                            
                 GHB =       2.0797E-02                   GHB =       9.0244E-03     GHB-1                            
                 RCH =           0.0000                   RCH =           0.0000     RCH-1                            

           TOTAL OUT =       6.6497E-02             TOTAL OUT =       1.6610E-02

            IN - OUT =      -3.1791E-10              IN - OUT =       2.3463E-11

 PERCENT DISCREPANCY =          -0.00     PERCENT DISCREPANCY =           0.00




         TIME SUMMARY AT END OF TIME STEP    1 IN STRESS PERIOD    4
                    SECONDS     MINUTES      HOURS       DAYS        YEARS
                    -----------------------------------------------------------
   TIME STEP LENGTH  86400.      1440.0      24.000      1.0000     2.73785E-03
 STRESS PERIOD TIME  86400.      1440.0      24.000      1.0000     2.73785E-03
         TOTAL TIME 3.45600E+05  5760.0      96.000      4.0000     1.09514E-02


end timestep


start timestep kper="5" kstp="1" mode="normal"


 OUTPUT CONTROL FOR STRESS PERIOD 5 IS REPEATED USING SETTINGS FROM A PREVIOUS STRESS PERIOD.


 STRESS PERIOD 5 IS TRANSIENT

 UBDSV1 SAVING           STO-SS ON UNIT   1018 AT TIME STEP      1, STRESS PERIOD      5
 UBDSV1 SAVING     FLOW-JA-FACE ON UNIT   1018 AT TIME STEP      1, STRESS PERIOD      5
 UBDSV06 SAVING         DATA-SAT IN MODEL MODEL            PACKAGE NPF             CONNECTED TO MODEL MODEL            PACKAGE NPF              ON UNIT   1018 AT TIME STEP      1, STRESS PERIOD      5
 UBDSV06 SAVING              GHB IN MODEL MODEL            PACKAGE MODEL           CONNECTED TO MODEL MODEL            PACKAGE GHB-1            ON UNIT   1018 AT TIME STEP      1, STRESS PERIOD      5

 GHB PACKAGE (GHB-1) FLOW RATES   PERIOD      5   STEP        1
 -----------------------------------------------
   NUMBER   CELLID                    RATE      
 -----------------------------------------------
     1      (5,1,1)              -1.13436550E-02
 -----------------------------------------------




 HEAD WILL BE SAVED ON UNIT 1017 AT END OF TIME STEP    1, STRESS PERIOD    5


  VOLUME BUDGET FOR ENTIRE MODEL AT END OF TIME STEP    1, STRESS PERIOD   5
  ---------------------------------------------------------------------------------------------------

     CUMULATIVE VOLUME      L**3       RATES FOR THIS TIME STEP      L**3/T          PACKAGE NAME    
     ------------------                 ------------------------                     ----------------

           IN:                                      IN:
           ---                                      ---
              STO-SS =           0.0000                STO-SS =           0.0000     STORAGE                          
                 WEL =           0.0000                   WEL =           0.0000     WEL-1                            
                 GHB =           0.0000                   GHB =           0.0000     GHB-1                            
                 RCH =       8.3107E-02                   RCH =       1.6610E-02     RCH-1                            

            TOTAL IN =       8.3107E-02              TOTAL IN =       1.6610E-02

          OUT:                                     OUT:
          ----                                     ----
              STO-SS =       5.0966E-02                STO-SS =       5.2667E-03     STORAGE                          
                 WEL =           0.0000                   WEL =           0.0000     WEL-1                            
                 GHB =       3.2141E-02                   GHB =       1.1344E-02     GHB-1                            
                 RCH =           0.0000                   RCH =           0.0000     RCH-1                            

           TOTAL OUT =       8.3107E-02             TOTAL OUT =       1.6610E-02

            IN - OUT =      -3.1470E-10              IN - OUT =       3.2062E-12

 PERCENT DISCREPANCY =          -0.00     PERCENT DISCREPANCY =           0.00




         TIME SUMMARY AT END OF TIME STEP    1 IN STRESS PERIOD    5
                    SECONDS     MINUTES      HOURS       DAYS        YEARS
                    -----------------------------------------------------------
   TIME STEP LENGTH  86400.      1440.0      24.000      1.0000     2.73785E-03
 STRESS PERIOD TIME  86400.      1440.0      24.000      1.0000     2.73785E-03
         TOTAL TIME 4.32000E+05  7200.0      120.00      5.0000     1.36893E-02


end timestep


start timestep kper="6" kstp="1" mode="normal"


 OUTPUT CONTROL FOR STRESS PERIOD 6 IS REPEATED USING SETTINGS FROM A PREVIOUS STRESS PERIOD.


 STRESS PERIOD 6 IS TRANSIENT

 UBDSV1 SAVING           STO-SS ON UNIT   1018 AT TIME STEP      1, STRESS PERIOD      6
 UBDSV1 SAVING     FLOW-JA-FACE ON UNIT   1018 AT TIME STEP      1, STRESS PERIOD      6
 UBDSV06 SAVING         DATA-SAT IN MODEL MODEL            PACKAGE NPF             CONNECTED TO MODEL MODEL            PACKAGE NPF              ON UNIT   1018 AT TIME STEP      1, STRESS PERIOD      6
 UBDSV06 SAVING              GHB IN MODEL MODEL            PACKAGE MODEL           CONNECTED TO MODEL MODEL            PACKAGE GHB-1            ON UNIT   1018 AT TIME STEP      1, STRESS PERIOD      6

 GHB PACKAGE (GHB-1) FLOW RATES   PERIOD      6   STEP        1
 -----------------------------------------------
   NUMBER   CELLID                    RATE      
 -----------------------------------------------
     1      (5,1,1)              -1.31646283E-02
 -----------------------------------------------




 HEAD WILL BE SAVED ON UNIT 1017 AT END OF TIME STEP    1, STRESS PERIOD    6


  VOLUME BUDGET FOR ENTIRE MODEL AT END OF TIME STEP    1, STRESS PERIOD   6
  ---------------------------------------------------------------------------------------------------

     CUMULATIVE VOLUME      L**3       RATES FOR THIS TIME STEP      L**3/T          PACKAGE NAME    
     ------------------                 ------------------------                     ----------------

           IN:                                      IN:
           ---                                      ---
              STO-SS =           0.0000                STO-SS =           0.0000     STORAGE                          
                 WEL =           0.0000                   WEL =           0.0000     WEL-1                            
                 GHB =           0.0000                   GHB =           0.0000     GHB-1                            
                 RCH =       9.9731E-02                   RCH =       1.6624E-02     RCH-1                            

            TOTAL IN =       9.9731E-02              TOTAL IN =       1.6624E-02

          OUT:                                     OUT:
          ----                                     ----
              STO-SS =       5.4425E-02                STO-SS =       3.4592E-03     STORAGE                          
                 WEL =           0.0000                   WEL =           0.0000     WEL-1                            
                 GHB =       4.5305E-02                   GHB =       1.3165E-02     GHB-1                            
                 RCH =           0.0000                   RCH =           0.0000     RCH-1                            

           TOTAL OUT =       9.9731E-02             TOTAL OUT =       1.6624E-02

            IN - OUT =      -3.1281E-10              IN - OUT =       1.8876E-12

 PERCENT DISCREPANCY =          -0.00     PERCENT DISCREPANCY =           0.00




         TIME SUMMARY AT END OF TIME STEP    1 IN STRESS PERIOD    6
                    SECONDS     MINUTES      HOURS       DAYS        YEARS
                    -----------------------------------------------------------
   TIME STEP LENGTH  86400.      1440.0      24.000      1.0000     2.73785E-03
 STRESS PERIOD TIME  86400.      1440.0      24.000      1.0000     2.73785E-03
         TOTAL TIME 5.18400E+05  8640.0      144.00      6.0000     1.64271E-02


end timestep


start timestep kper="7" kstp="1" mode="normal"


 OUTPUT CONTROL FOR STRESS PERIOD 7 IS REPEATED USING SETTINGS FROM A PREVIOUS STRESS PERIOD.


 STRESS PERIOD 7 IS TRANSIENT

 UBDSV1 SAVING           STO-SS ON UNIT   1018 AT TIME STEP      1, STRESS PERIOD      7
 UBDSV1 SAVING     FLOW-JA-FACE ON UNIT   1018 AT TIME STEP      1, STRESS PERIOD      7
 UBDSV06 SAVING         DATA-SAT IN MODEL MODEL            PACKAGE NPF             CONNECTED TO MODEL MODEL            PACKAGE NPF              ON UNIT   1018 AT TIME STEP      1, STRESS PERIOD      7
 UBDSV06 SAVING              GHB IN MODEL MODEL            PACKAGE MODEL           CONNECTED TO MODEL MODEL            PACKAGE GHB-1            ON UNIT   1018 AT TIME STEP      1, STRESS PERIOD      7

 GHB PACKAGE (GHB-1) FLOW RATES   PERIOD      7   STEP        1
 -----------------------------------------------
   NUMBER   CELLID                    RATE      
 -----------------------------------------------
     1      (5,1,1)              -1.44403948E-02
 -----------------------------------------------




 HEAD WILL BE SAVED ON UNIT 1017 AT END OF TIME STEP    1, STRESS PERIOD    7


  VOLUME BUDGET FOR ENTIRE MODEL AT END OF TIME STEP    1, STRESS PERIOD   7
  ---------------------------------------------------------------------------------------------------

     CUMULATIVE VOLUME      L**3       RATES FOR THIS TIME STEP      L**3/T          PACKAGE NAME    
     ------------------                 ------------------------                     ----------------

           IN:                                      IN:
           ---                                      ---
              STO-SS =           0.0000                STO-SS =           0.0000     STORAGE                          
                 WEL =           0.0000                   WEL =           0.0000     WEL-1                            
                 GHB =           0.0000                   GHB =           0.0000     GHB-1                            
                 RCH =           0.1164                   RCH =       1.6652E-02     RCH-1                            

            TOTAL IN =           0.1164              TOTAL IN =       1.6652E-02

          OUT:                                     OUT:
          ----                                     ----
              STO-SS =       5.6637E-02                STO-SS =       2.2117E-03     STORAGE                          
                 WEL =           0.0000                   WEL =           0.0000     WEL-1                            
                 GHB =       5.9746E-02                   GHB =       1.4440E-02     GHB-1                            
                 RCH =           0.0000                   RCH =           0.0000     RCH-1                            

           TOTAL OUT =           0.1164             TOTAL OUT =       1.6652E-02

            IN - OUT =      -3.1107E-10              IN - OUT =       1.7459E-12

 PERCENT DISCREPANCY =          -0.00     PERCENT DISCREPANCY =           0.00




         TIME SUMMARY AT END OF TIME STEP    1 IN STRESS PERIOD    7
                    SECONDS     MINUTES      HOURS       DAYS        YEARS
                    -----------------------------------------------------------
   TIME STEP LENGTH  86400.      1440.0      24.000      1.0000     2.73785E-03
 STRESS PERIOD TIME  86400.      1440.0      24.000      1.0000     2.73785E-03
         TOTAL TIME 6.04800E+05  10080.      168.00      7.0000     1.91650E-02


end timestep


start timestep kper="8" kstp="1" mode="normal"


 OUTPUT CONTROL FOR STRESS PERIOD 8 IS REPEATED USING SETTINGS FROM A PREVIOUS STRESS PERIOD.


 STRESS PERIOD 8 IS TRANSIENT

 UBDSV1 SAVING           STO-SS ON UNIT   1018 AT TIME STEP      1, STRESS PERIOD      8
 UBDSV1 SAVING     FLOW-JA-FACE ON UNIT   1018 AT TIME STEP      1, STRESS PERIOD      8
 UBDSV06 SAVING         DATA-SAT IN MODEL MODEL            PACKAGE NPF             CONNECTED TO MODEL MODEL            PACKAGE NPF              ON UNIT   1018 AT TIME STEP      1, STRESS PERIOD      8
 UBDSV06 SAVING              GHB IN MODEL MODEL            PACKAGE MODEL           CONNECTED TO MODEL MODEL            PACKAGE GHB-1            ON UNIT   1018 AT TIME STEP      1, STRESS PERIOD      8

 GHB PACKAGE (GHB-1) FLOW RATES   PERIOD      8   STEP        1
 -----------------------------------------------
   NUMBER   CELLID                    RATE      
 -----------------------------------------------
     1      (5,1,1)              -1.52611770E-02
 -----------------------------------------------




 HEAD WILL BE SAVED ON UNIT 1017 AT END OF TIME STEP    1, STRESS PERIOD    8


  VOLUME BUDGET FOR ENTIRE MODEL AT END OF TIME STEP    1, STRESS PERIOD   8
  ---------------------------------------------------------------------------------------------------

     CUMULATIVE VOLUME      L**3       RATES FOR THIS TIME STEP      L**3/T          PACKAGE NAME    
     ------------------                 ------------------------                     ----------------

           IN:                                      IN:
           ---                                      ---
              STO-SS =           0.0000                STO-SS =           0.0000     STORAGE                          
                 WEL =           0.0000                   WEL =           0.0000     WEL-1                            
                 GHB =           0.0000                   GHB =           0.0000     GHB-1                            
                 RCH =           0.1331                   RCH =       1.6695E-02     RCH-1                            

            TOTAL IN =           0.1331              TOTAL IN =       1.6695E-02

          OUT:                                     OUT:
          ----                                     ----
              STO-SS =       5.8071E-02                STO-SS =       1.4342E-03     STORAGE                          
                 WEL =           0.0000                   WEL =           0.0000     WEL-1                            
                 GHB =       7.5007E-02                   GHB =       1.5261E-02     GHB-1                            
                 RCH =           0.0000                   RCH =           0.0000     RCH-1                            

           TOTAL OUT =           0.1331             TOTAL OUT =       1.6695E-02

            IN - OUT =      -3.0898E-10              IN - OUT =       2.0890E-12

 PERCENT DISCREPANCY =          -0.00     PERCENT DISCREPANCY =           0.00




         TIME SUMMARY AT END OF TIME STEP    1 IN STRESS PERIOD    8
                    SECONDS     MINUTES      HOURS       DAYS        YEARS
                    -----------------------------------------------------------
   TIME STEP LENGTH  86400.      1440.0      24.000      1.0000     2.73785E-03
 STRESS PERIOD TIME  86400.      1440.0      24.000      1.0000     2.73785E-03
         TOTAL TIME 6.91200E+05  11520.      192.00      8.0000     2.19028E-02


end timestep


start timestep kper="9" kstp="1" mode="normal"


 OUTPUT CONTROL FOR STRESS PERIOD 9 IS REPEATED USING SETTINGS FROM A PREVIOUS STRESS PERIOD.


 STRESS PERIOD 9 IS TRANSIENT

 UBDSV1 SAVING           STO-SS ON UNIT   1018 AT TIME STEP      1, STRESS PERIOD      9
 UBDSV1 SAVING     FLOW-JA-FACE ON UNIT   1018 AT TIME STEP      1, STRESS PERIOD      9
 UBDSV06 SAVING         DATA-SAT IN MODEL MODEL            PACKAGE NPF             CONNECTED TO MODEL MODEL            PACKAGE NPF              ON UNIT   1018 AT TIME STEP      1, STRESS PERIOD      9
 UBDSV06 SAVING              GHB IN MODEL MODEL            PACKAGE MODEL           CONNECTED TO MODEL MODEL            PACKAGE GHB-1            ON UNIT   1018 AT TIME STEP      1, STRESS PERIOD      9

 GHB PACKAGE (GHB-1) FLOW RATES   PERIOD      9   STEP        1
 -----------------------------------------------
   NUMBER   CELLID                    RATE      
 -----------------------------------------------
     1      (5,1,1)              -1.57780983E-02
 -----------------------------------------------




 HEAD WILL BE SAVED ON UNIT 1017 AT END OF TIME STEP    1, STRESS PERIOD    9


  VOLUME BUDGET FOR ENTIRE MODEL AT END OF TIME STEP    1, STRESS PERIOD   9
  ---------------------------------------------------------------------------------------------------

     CUMULATIVE VOLUME      L**3       RATES FOR THIS TIME STEP      L**3/T          PACKAGE NAME    
     ------------------                 ------------------------                     ----------------

           IN:                                      IN:
           ---                                      ---
              STO-SS =           0.0000                STO-SS =           0.0000     STORAGE                          
                 WEL =           0.0000                   WEL =           0.0000     WEL-1                            
                 GHB =           0.0000                   GHB =           0.0000     GHB-1                            
                 RCH =           0.1498                   RCH =       1.6756E-02     RCH-1                            

            TOTAL IN =           0.1498              TOTAL IN =       1.6756E-02

          OUT:                                     OUT:
          ----                                     ----
              STO-SS =       5.9050E-02                STO-SS =       9.7833E-04     STORAGE                          
                 WEL =           0.0000                   WEL =           0.0000     WEL-1                            
                 GHB =       9.0785E-02                   GHB =       1.5778E-02     GHB-1                            
                 RCH =           0.0000                   RCH =           0.0000     RCH-1                            

           TOTAL OUT =           0.1498             TOTAL OUT =       1.6756E-02

            IN - OUT =      -3.0610E-10              IN - OUT =       2.8834E-12

 PERCENT DISCREPANCY =          -0.00     PERCENT DISCREPANCY =           0.00




         TIME SUMMARY AT END OF TIME STEP    1 IN STRESS PERIOD    9
                    SECONDS     MINUTES      HOURS       DAYS        YEARS
                    -----------------------------------------------------------
   TIME STEP LENGTH  86400.      1440.0      24.000      1.0000     2.73785E-03
 STRESS PERIOD TIME  86400.      1440.0      24.000      1.0000     2.73785E-03
         TOTAL TIME 7.77600E+05  12960.      216.00      9.0000     2.46407E-02


end timestep


start timestep kper="10" kstp="1" mode="normal"


 OUTPUT CONTROL FOR STRESS PERIOD 10 IS REPEATED USING SETTINGS FROM A PREVIOUS STRESS PERIOD.


 STRESS PERIOD 10 IS TRANSIENT

 UBDSV1 SAVING           STO-SS ON UNIT   1018 AT TIME STEP      1, STRESS PERIOD     10
 UBDSV1 SAVING     FLOW-JA-FACE ON UNIT   1018 AT TIME STEP      1, STRESS PERIOD     10
 UBDSV06 SAVING         DATA-SAT IN MODEL MODEL            PACKAGE NPF             CONNECTED TO MODEL MODEL            PACKAGE NPF              ON UNIT   1018 AT TIME STEP      1, STRESS PERIOD     10
 UBDSV06 SAVING              GHB IN MODEL MODEL            PACKAGE MODEL           CONNECTED TO MODEL MODEL            PACKAGE GHB-1            ON UNIT   1018 AT TIME STEP      1, STRESS PERIOD     10

 GHB PACKAGE (GHB-1) FLOW RATES   PERIOD     10   STEP        1
 -----------------------------------------------
   NUMBER   CELLID                    RATE      
 -----------------------------------------------
     1      (5,1,1)              -1.61173805E-02
 -----------------------------------------------




 HEAD WILL BE SAVED ON UNIT 1017 AT END OF TIME STEP    1, STRESS PERIOD   10


  VOLUME BUDGET FOR ENTIRE MODEL AT END OF TIME STEP    1, STRESS PERIOD  10
  ---------------------------------------------------------------------------------------------------

     CUMULATIVE VOLUME      L**3       RATES FOR THIS TIME STEP      L**3/T          PACKAGE NAME    
     ------------------                 ------------------------                     ----------------

           IN:                                      IN:
           ---                                      ---
              STO-SS =           0.0000                STO-SS =           0.0000     STORAGE                          
                 WEL =           0.0000                   WEL =           0.0000     WEL-1                            
                 GHB =           0.0000                   GHB =           0.0000     GHB-1                            
                 RCH =           0.1667                   RCH =       1.6832E-02     RCH-1                            

            TOTAL IN =           0.1667              TOTAL IN =       1.6832E-02

          OUT:                                     OUT:
          ----                                     ----
              STO-SS =       5.9765E-02                STO-SS =       7.1504E-04     STORAGE                          
                 WEL =           0.0000                   WEL =           0.0000     WEL-1                            
                 GHB =           0.1069                   GHB =       1.6117E-02     GHB-1                            
                 RCH =           0.0000                   RCH =           0.0000     RCH-1                            

           TOTAL OUT =           0.1667             TOTAL OUT =       1.6832E-02

            IN - OUT =      -3.0203E-10              IN - OUT =       4.0618E-12

 PERCENT DISCREPANCY =          -0.00     PERCENT DISCREPANCY =           0.00




         TIME SUMMARY AT END OF TIME STEP    1 IN STRESS PERIOD   10
                    SECONDS     MINUTES      HOURS       DAYS        YEARS
                    -----------------------------------------------------------
   TIME STEP LENGTH  86400.      1440.0      24.000      1.0000     2.73785E-03
 STRESS PERIOD TIME  86400.      1440.0      24.000      1.0000     2.73785E-03
         TOTAL TIME 8.64000E+05  14400.      240.00      10.000     2.73785E-02


end timestep


start timestep kper="11" kstp="1" mode="normal"


 OUTPUT CONTROL FOR STRESS PERIOD 11 IS REPEATED USING SETTINGS FROM A PREVIOUS STRESS PERIOD.


 STRESS PERIOD 11 IS TRANSIENT

 UBDSV1 SAVING           STO-SS ON UNIT   1018 AT TIME STEP      1, STRESS PERIOD     11
 UBDSV1 SAVING     FLOW-JA-FACE ON UNIT   1018 AT TIME STEP      1, STRESS PERIOD     11
 UBDSV06 SAVING         DATA-SAT IN MODEL MODEL            PACKAGE NPF             CONNECTED TO MODEL MODEL            PACKAGE NPF              ON UNIT   1018 AT TIME STEP      1, STRESS PERIOD     11
 UBDSV06 SAVING              GHB IN MODEL MODEL            PACKAGE MODEL           CONNECTED TO MODEL MODEL            PACKAGE GHB-1            ON UNIT   1018 AT TIME STEP      1, STRESS PERIOD     11

 GHB PACKAGE (GHB-1) FLOW RATES   PERIOD     11   STEP        1
 -----------------------------------------------
   NUMBER   CELLID                    RATE      
 -----------------------------------------------
     1      (5,1,1)              -1.63483395E-02
 -----------------------------------------------




 HEAD WILL BE SAVED ON UNIT 1017 AT END OF TIME STEP    1, STRESS PERIOD   11


  VOLUME BUDGET FOR ENTIRE MODEL AT END OF TIME STEP    1, STRESS PERIOD  11
  ---------------------------------------------------------------------------------------------------

     CUMULATIVE VOLUME      L**3       RATES FOR THIS TIME STEP      L**3/T          PACKAGE NAME    
     ------------------                 ------------------------                     ----------------

           IN:                                      IN:
           ---                                      ---
              STO-SS =           0.0000                STO-SS =           0.0000     STORAGE                          
                 WEL =           0.0000                   WEL =           0.0000     WEL-1                            
                 GHB =           0.0000                   GHB =           0.0000     GHB-1                            
                 RCH =           0.1836                   RCH =       1.6928E-02     RCH-1                            

            TOTAL IN =           0.1836              TOTAL IN =       1.6928E-02

          OUT:                                     OUT:
          ----                                     ----
              STO-SS =       6.0344E-02                STO-SS =       5.7945E-04     STORAGE                          
                 WEL =           0.0000                   WEL =           0.0000     WEL-1                            
                 GHB =           0.1233                   GHB =       1.6348E-02     GHB-1                            
                 RCH =           0.0000                   RCH =           0.0000     RCH-1                            

           TOTAL OUT =           0.1836             TOTAL OUT =       1.6928E-02

            IN - OUT =      -3.0117E-10              IN - OUT =       8.6501E-13

 PERCENT DISCREPANCY =          -0.00     PERCENT DISCREPANCY =           0.00




         TIME SUMMARY AT END OF TIME STEP    1 IN STRESS PERIOD   11
                    SECONDS     MINUTES      HOURS       DAYS        YEARS
                    -----------------------------------------------------------
   TIME STEP LENGTH  86400.      1440.0      24.000      1.0000     2.73785E-03
 STRESS PERIOD TIME  86400.      1440.0      24.000      1.0000     2.73785E-03
         TOTAL TIME 9.50400E+05  15840.      264.00      11.000     3.01164E-02


end timestep


start timestep kper="12" kstp="1" mode="normal"


 OUTPUT CONTROL FOR STRESS PERIOD 12 IS REPEATED USING SETTINGS FROM A PREVIOUS STRESS PERIOD.


 STRESS PERIOD 12 IS TRANSIENT

 UBDSV1 SAVING           STO-SS ON UNIT   1018 AT TIME STEP      1, STRESS PERIOD     12
 UBDSV1 SAVING     FLOW-JA-FACE ON UNIT   1018 AT TIME STEP      1, STRESS PERIOD     12
 UBDSV06 SAVING         DATA-SAT IN MODEL MODEL            PACKAGE NPF             CONNECTED TO MODEL MODEL            PACKAGE NPF              ON UNIT   1018 AT TIME STEP      1, STRESS PERIOD     12
 UBDSV06 SAVING              GHB IN MODEL MODEL            PACKAGE MODEL           CONNECTED TO MODEL MODEL            PACKAGE GHB-1            ON UNIT   1018 AT TIME STEP      1, STRESS PERIOD     12

 GHB PACKAGE (GHB-1) FLOW RATES   PERIOD     12   STEP        1
 -----------------------------------------------
   NUMBER   CELLID                    RATE      
 -----------------------------------------------
     1      (5,1,1)              -1.65327948E-02
 -----------------------------------------------




 HEAD WILL BE SAVED ON UNIT 1017 AT END OF TIME STEP    1, STRESS PERIOD   12


  VOLUME BUDGET FOR ENTIRE MODEL AT END OF TIME STEP    1, STRESS PERIOD  12
  ---------------------------------------------------------------------------------------------------

     CUMULATIVE VOLUME      L**3       RATES FOR THIS TIME STEP      L**3/T          PACKAGE NAME    
     ------------------                 ------------------------                     ----------------

           IN:                                      IN:
           ---                                      ---
              STO-SS =           0.0000                STO-SS =           0.0000     STORAGE                          
                 WEL =           0.0000                   WEL =           0.0000     WEL-1                            
                 GHB =           0.0000                   GHB =           0.0000     GHB-1                            
                 RCH =           0.2006                   RCH =       1.7044E-02     RCH-1                            

            TOTAL IN =           0.2006              TOTAL IN =       1.7044E-02

          OUT:                                     OUT:
          ----                                     ----
              STO-SS =       6.0855E-02                STO-SS =       5.1122E-04     STORAGE                          
                 WEL =           0.0000                   WEL =           0.0000     WEL-1                            
                 GHB =           0.1398                   GHB =       1.6533E-02     GHB-1                            
                 RCH =           0.0000                   RCH =           0.0000     RCH-1                            

           TOTAL OUT =           0.2006             TOTAL OUT =       1.7044E-02

            IN - OUT =      -3.0025E-10              IN - OUT =       9.2341E-13

 PERCENT DISCREPANCY =          -0.00     PERCENT DISCREPANCY =           0.00




         TIME SUMMARY AT END OF TIME STEP    1 IN STRESS PERIOD   12
                    SECONDS     MINUTES      HOURS       DAYS        YEARS
                    -----------------------------------------------------------
   TIME STEP LENGTH  86400.      1440.0      24.000      1.0000     2.73785E-03
 STRESS PERIOD TIME  86400.      1440.0      24.000      1.0000     2.73785E-03
         TOTAL TIME 1.03680E+06  17280.      288.00      12.000     3.28542E-02


end timestep


start timestep kper="13" kstp="1" mode="normal"


 OUTPUT CONTROL FOR STRESS PERIOD 13 IS REPEATED USING SETTINGS FROM A PREVIOUS STRESS PERIOD.


 STRESS PERIOD 13 IS TRANSIENT

 UBDSV1 SAVING           STO-SS ON UNIT   1018 AT TIME STEP      1, STRESS PERIOD     13
 UBDSV1 SAVING     FLOW-JA-FACE ON UNIT   1018 AT TIME STEP      1, STRESS PERIOD     13
 UBDSV06 SAVING         DATA-SAT IN MODEL MODEL            PACKAGE NPF             CONNECTED TO MODEL MODEL            PACKAGE NPF              ON UNIT   1018 AT TIME STEP      1, STRESS PERIOD     13
 UBDSV06 SAVING              GHB IN MODEL MODEL            PACKAGE MODEL           CONNECTED TO MODEL MODEL            PACKAGE GHB-1            ON UNIT   1018 AT TIME STEP      1, STRESS PERIOD     13

 GHB PACKAGE (GHB-1) FLOW RATES   PERIOD     13   STEP        1
 -----------------------------------------------
   NUMBER   CELLID                    RATE      
 -----------------------------------------------
     1      (5,1,1)              -1.66978835E-02
 -----------------------------------------------




 HEAD WILL BE SAVED ON UNIT 1017 AT END OF TIME STEP    1, STRESS PERIOD   13


  VOLUME BUDGET FOR ENTIRE MODEL AT END OF TIME STEP    1, STRESS PERIOD  13
  ---------------------------------------------------------------------------------------------------

     CUMULATIVE VOLUME      L**3       RATES FOR THIS TIME STEP      L**3/T          PACKAGE NAME    
     ------------------                 ------------------------                     ----------------

           IN:                                      IN:
           ---                                      ---
              STO-SS =           0.0000                STO-SS =           0.0000     STORAGE                          
                 WEL =           0.0000                   WEL =           0.0000     WEL-1                            
                 GHB =           0.0000                   GHB =           0.0000     GHB-1                            
                 RCH =           0.2178                   RCH =       1.7189E-02     RCH-1                            

            TOTAL IN =           0.2178              TOTAL IN =       1.7189E-02

          OUT:                                     OUT:
          ----                                     ----
              STO-SS =       6.1346E-02                STO-SS =       4.9068E-04     STORAGE                          
                 WEL =           0.0000                   WEL =           0.0000     WEL-1                            
                 GHB =           0.1565                   GHB =       1.6698E-02     GHB-1                            
                 RCH =           0.0000                   RCH =           0.0000     RCH-1                            

           TOTAL OUT =           0.2178             TOTAL OUT =       1.7189E-02

            IN - OUT =      -2.9931E-10              IN - OUT =       9.3934E-13

 PERCENT DISCREPANCY =          -0.00     PERCENT DISCREPANCY =           0.00




         TIME SUMMARY AT END OF TIME STEP    1 IN STRESS PERIOD   13
                    SECONDS     MINUTES      HOURS       DAYS        YEARS
                    -----------------------------------------------------------
   TIME STEP LENGTH  86400.      1440.0      24.000      1.0000     2.73785E-03
 STRESS PERIOD TIME  86400.      1440.0      24.000      1.0000     2.73785E-03
         TOTAL TIME 1.12320E+06  18720.      312.00      13.000     3.55921E-02


end timestep


start timestep kper="14" kstp="1" mode="normal"


 OUTPUT CONTROL FOR STRESS PERIOD 14 IS REPEATED USING SETTINGS FROM A PREVIOUS STRESS PERIOD.


 STRESS PERIOD 14 IS TRANSIENT

 UBDSV1 SAVING           STO-SS ON UNIT   1018 AT TIME STEP      1, STRESS PERIOD     14
 UBDSV1 SAVING     FLOW-JA-FACE ON UNIT   1018 AT TIME STEP      1, STRESS PERIOD     14
 UBDSV06 SAVING         DATA-SAT IN MODEL MODEL            PACKAGE NPF             CONNECTED TO MODEL MODEL            PACKAGE NPF              ON UNIT   1018 AT TIME STEP      1, STRESS PERIOD     14
 UBDSV06 SAVING              GHB IN MODEL MODEL            PACKAGE MODEL           CONNECTED TO MODEL MODEL            PACKAGE GHB-1            ON UNIT   1018 AT TIME STEP      1, STRESS PERIOD     14

 GHB PACKAGE (GHB-1) FLOW RATES   PERIOD     14   STEP        1
 -----------------------------------------------
   NUMBER   CELLID                    RATE      
 -----------------------------------------------
     1      (5,1,1)              -1.68614734E-02
 -----------------------------------------------




 HEAD WILL BE SAVED ON UNIT 1017 AT END OF TIME STEP    1, STRESS PERIOD   14


  VOLUME BUDGET FOR ENTIRE MODEL AT END OF TIME STEP    1, STRESS PERIOD  14
  ---------------------------------------------------------------------------------------------------

     CUMULATIVE VOLUME      L**3       RATES FOR THIS TIME STEP      L**3/T          PACKAGE NAME    
     ------------------                 ------------------------                     ----------------

           IN:                                      IN:
           ---                                      ---
              STO-SS =           0.0000                STO-SS =           0.0000     STORAGE                          
                 WEL =           0.0000                   WEL =           0.0000     WEL-1                            
                 GHB =           0.0000                   GHB =           0.0000     GHB-1                            
                 RCH =           0.2352                   RCH =       1.7375E-02     RCH-1                            

            TOTAL IN =           0.2352              TOTAL IN =       1.7375E-02

          OUT:                                     OUT:
          ----                                     ----
              STO-SS =       6.1859E-02                STO-SS =       5.1335E-04     STORAGE                          
                 WEL =           0.0000                   WEL =           0.0000     WEL-1                            
                 GHB =           0.1733                   GHB =       1.6861E-02     GHB-1                            
                 RCH =           0.0000                   RCH =           0.0000     RCH-1                            

           TOTAL OUT =           0.2352             TOTAL OUT =       1.7375E-02

            IN - OUT =      -2.9842E-10              IN - OUT =       8.8177E-13

 PERCENT DISCREPANCY =          -0.00     PERCENT DISCREPANCY =           0.00




         TIME SUMMARY AT END OF TIME STEP    1 IN STRESS PERIOD   14
                    SECONDS     MINUTES      HOURS       DAYS        YEARS
                    -----------------------------------------------------------
   TIME STEP LENGTH  86400.      1440.0      24.000      1.0000     2.73785E-03
 STRESS PERIOD TIME  86400.      1440.0      24.000      1.0000     2.73785E-03
         TOTAL TIME 1.20960E+06  20160.      336.00      14.000     3.83299E-02


end timestep


start timestep kper="15" kstp="1" mode="normal"


 OUTPUT CONTROL FOR STRESS PERIOD 15 IS REPEATED USING SETTINGS FROM A PREVIOUS STRESS PERIOD.


 STRESS PERIOD 15 IS TRANSIENT

 UBDSV1 SAVING           STO-SS ON UNIT   1018 AT TIME STEP      1, STRESS PERIOD     15
 UBDSV1 SAVING     FLOW-JA-FACE ON UNIT   1018 AT TIME STEP      1, STRESS PERIOD     15
 UBDSV06 SAVING         DATA-SAT IN MODEL MODEL            PACKAGE NPF             CONNECTED TO MODEL MODEL            PACKAGE NPF              ON UNIT   1018 AT TIME STEP      1, STRESS PERIOD     15
 UBDSV06 SAVING              GHB IN MODEL MODEL            PACKAGE MODEL           CONNECTED TO MODEL MODEL            PACKAGE GHB-1            ON UNIT   1018 AT TIME STEP      1, STRESS PERIOD     15

 GHB PACKAGE (GHB-1) FLOW RATES   PERIOD     15   STEP        1
 -----------------------------------------------
   NUMBER   CELLID                    RATE      
 -----------------------------------------------
     1      (5,1,1)              -1.70355441E-02
 -----------------------------------------------




 HEAD WILL BE SAVED ON UNIT 1017 AT END OF TIME STEP    1, STRESS PERIOD   15


  VOLUME BUDGET FOR ENTIRE MODEL AT END OF TIME STEP    1, STRESS PERIOD  15
  ---------------------------------------------------------------------------------------------------

     CUMULATIVE VOLUME      L**3       RATES FOR THIS TIME STEP      L**3/T          PACKAGE NAME    
     ------------------                 ------------------------                     ----------------

           IN:                                      IN:
           ---                                      ---
              STO-SS =           0.0000                STO-SS =           0.0000     STORAGE                          
                 WEL =           0.0000                   WEL =           0.0000     WEL-1                            
                 GHB =           0.0000                   GHB =           0.0000     GHB-1                            
                 RCH =           0.2528                   RCH =       1.7604E-02     RCH-1                            

            TOTAL IN =           0.2528              TOTAL IN =       1.7604E-02

          OUT:                                     OUT:
          ----                                     ----
              STO-SS =       6.2428E-02                STO-SS =       5.6876E-04     STORAGE                          
                 WEL =           0.0000                   WEL =           0.0000     WEL-1                            
                 GHB =           0.1904                   GHB =       1.7036E-02     GHB-1                            
                 RCH =           0.0000                   RCH =           0.0000     RCH-1                            

           TOTAL OUT =           0.2528             TOTAL OUT =       1.7604E-02

            IN - OUT =      -2.9764E-10              IN - OUT =       7.8913E-13

 PERCENT DISCREPANCY =          -0.00     PERCENT DISCREPANCY =           0.00




         TIME SUMMARY AT END OF TIME STEP    1 IN STRESS PERIOD   15
                    SECONDS     MINUTES      HOURS       DAYS        YEARS
                    -----------------------------------------------------------
   TIME STEP LENGTH  86400.      1440.0      24.000      1.0000     2.73785E-03
 STRESS PERIOD TIME  86400.      1440.0      24.000      1.0000     2.73785E-03
         TOTAL TIME 1.29600E+06  21600.      360.00      15.000     4.10678E-02


end timestep


start timestep kper="16" kstp="1" mode="normal"


 OUTPUT CONTROL FOR STRESS PERIOD 16 IS REPEATED USING SETTINGS FROM A PREVIOUS STRESS PERIOD.


 STRESS PERIOD 16 IS TRANSIENT

 UBDSV1 SAVING           STO-SS ON UNIT   1018 AT TIME STEP      1, STRESS PERIOD     16
 UBDSV1 SAVING     FLOW-JA-FACE ON UNIT   1018 AT TIME STEP      1, STRESS PERIOD     16
 UBDSV06 SAVING         DATA-SAT IN MODEL MODEL            PACKAGE NPF             CONNECTED TO MODEL MODEL            PACKAGE NPF              ON UNIT   1018 AT TIME STEP      1, STRESS PERIOD     16
 UBDSV06 SAVING              GHB IN MODEL MODEL            PACKAGE MODEL           CONNECTED TO MODEL MODEL            PACKAGE GHB-1            ON UNIT   1018 AT TIME STEP      1, STRESS PERIOD     16

 GHB PACKAGE (GHB-1) FLOW RATES   PERIOD     16   STEP        1
 -----------------------------------------------
   NUMBER   CELLID                    RATE      
 -----------------------------------------------
     1      (5,1,1)              -1.72299352E-02
 -----------------------------------------------




 HEAD WILL BE SAVED ON UNIT 1017 AT END OF TIME STEP    1, STRESS PERIOD   16


  VOLUME BUDGET FOR ENTIRE MODEL AT END OF TIME STEP    1, STRESS PERIOD  16
  ---------------------------------------------------------------------------------------------------

     CUMULATIVE VOLUME      L**3       RATES FOR THIS TIME STEP      L**3/T          PACKAGE NAME    
     ------------------                 ------------------------                     ----------------

           IN:                                      IN:
           ---                                      ---
              STO-SS =           0.0000                STO-SS =           0.0000     STORAGE                          
                 WEL =           0.0000                   WEL =           0.0000     WEL-1                            
                 GHB =           0.0000                   GHB =           0.0000     GHB-1                            
                 RCH =           0.2707                   RCH =       1.7884E-02     RCH-1                            

            TOTAL IN =           0.2707              TOTAL IN =       1.7884E-02

          OUT:                                     OUT:
          ----                                     ----
              STO-SS =       6.3083E-02                STO-SS =       6.5451E-04     STORAGE                          
                 WEL =           0.0000                   WEL =           0.0000     WEL-1                            
                 GHB =           0.2076                   GHB =       1.7230E-02     GHB-1                            
                 RCH =           0.0000                   RCH =           0.0000     RCH-1                            

           TOTAL OUT =           0.2707             TOTAL OUT =       1.7884E-02

            IN - OUT =      -2.9696E-10              IN - OUT =       6.7816E-13

 PERCENT DISCREPANCY =          -0.00     PERCENT DISCREPANCY =           0.00




         TIME SUMMARY AT END OF TIME STEP    1 IN STRESS PERIOD   16
                    SECONDS     MINUTES      HOURS       DAYS        YEARS
                    -----------------------------------------------------------
   TIME STEP LENGTH  86400.      1440.0      24.000      1.0000     2.73785E-03
 STRESS PERIOD TIME  86400.      1440.0      24.000      1.0000     2.73785E-03
         TOTAL TIME 1.38240E+06  23040.      384.00      16.000     4.38056E-02


end timestep


start timestep kper="17" kstp="1" mode="normal"


 OUTPUT CONTROL FOR STRESS PERIOD 17 IS REPEATED USING SETTINGS FROM A PREVIOUS STRESS PERIOD.


 STRESS PERIOD 17 IS TRANSIENT

 UBDSV1 SAVING           STO-SS ON UNIT   1018 AT TIME STEP      1, STRESS PERIOD     17
 UBDSV1 SAVING     FLOW-JA-FACE ON UNIT   1018 AT TIME STEP      1, STRESS PERIOD     17
 UBDSV06 SAVING         DATA-SAT IN MODEL MODEL            PACKAGE NPF             CONNECTED TO MODEL MODEL            PACKAGE NPF              ON UNIT   1018 AT TIME STEP      1, STRESS PERIOD     17
 UBDSV06 SAVING              GHB IN MODEL MODEL            PACKAGE MODEL           CONNECTED TO MODEL MODEL            PACKAGE GHB-1            ON UNIT   1018 AT TIME STEP      1, STRESS PERIOD     17

 GHB PACKAGE (GHB-1) FLOW RATES   PERIOD     17   STEP        1
 -----------------------------------------------
   NUMBER   CELLID                    RATE      
 -----------------------------------------------
     1      (5,1,1)              -1.74562970E-02
 -----------------------------------------------




 HEAD WILL BE SAVED ON UNIT 1017 AT END OF TIME STEP    1, STRESS PERIOD   17


  VOLUME BUDGET FOR ENTIRE MODEL AT END OF TIME STEP    1, STRESS PERIOD  17
  ---------------------------------------------------------------------------------------------------

     CUMULATIVE VOLUME      L**3       RATES FOR THIS TIME STEP      L**3/T          PACKAGE NAME    
     ------------------                 ------------------------                     ----------------

           IN:                                      IN:
           ---                                      ---
              STO-SS =           0.0000                STO-SS =           0.0000     STORAGE                          
                 WEL =           0.0000                   WEL =           0.0000     WEL-1                            
                 GHB =           0.0000                   GHB =           0.0000     GHB-1                            
                 RCH =           0.2889                   RCH =       1.8218E-02     RCH-1                            

            TOTAL IN =           0.2889              TOTAL IN =       1.8218E-02

          OUT:                                     OUT:
          ----                                     ----
              STO-SS =       6.3845E-02                STO-SS =       7.6193E-04     STORAGE                          
                 WEL =           0.0000                   WEL =           0.0000     WEL-1                            
                 GHB =           0.2251                   GHB =       1.7456E-02     GHB-1                            
                 RCH =           0.0000                   RCH =           0.0000     RCH-1                            

           TOTAL OUT =           0.2889             TOTAL OUT =       1.8218E-02

            IN - OUT =      -2.8438E-10              IN - OUT =       1.2576E-11

 PERCENT DISCREPANCY =          -0.00     PERCENT DISCREPANCY =           0.00




         TIME SUMMARY AT END OF TIME STEP    1 IN STRESS PERIOD   17
                    SECONDS     MINUTES      HOURS       DAYS        YEARS
                    -----------------------------------------------------------
   TIME STEP LENGTH  86400.      1440.0      24.000      1.0000     2.73785E-03
 STRESS PERIOD TIME  86400.      1440.0      24.000      1.0000     2.73785E-03
         TOTAL TIME 1.46880E+06  24480.      408.00      17.000     4.65435E-02


end timestep


start timestep kper="18" kstp="1" mode="normal"


 OUTPUT CONTROL FOR STRESS PERIOD 18 IS REPEATED USING SETTINGS FROM A PREVIOUS STRESS PERIOD.


 STRESS PERIOD 18 IS TRANSIENT

 UBDSV1 SAVING           STO-SS ON UNIT   1018 AT TIME STEP      1, STRESS PERIOD     18
 UBDSV1 SAVING     FLOW-JA-FACE ON UNIT   1018 AT TIME STEP      1, STRESS PERIOD     18
 UBDSV06 SAVING         DATA-SAT IN MODEL MODEL            PACKAGE NPF             CONNECTED TO MODEL MODEL            PACKAGE NPF              ON UNIT   1018 AT TIME STEP      1, STRESS PERIOD     18
 UBDSV06 SAVING              GHB IN MODEL MODEL            PACKAGE MODEL           CONNECTED TO MODEL MODEL            PACKAGE GHB-1            ON UNIT   1018 AT TIME STEP      1, STRESS PERIOD     18

 GHB PACKAGE (GHB-1) FLOW RATES   PERIOD     18   STEP        1
 -----------------------------------------------
   NUMBER   CELLID                    RATE      
 -----------------------------------------------
     1      (5,1,1)              -1.77185875E-02
 -----------------------------------------------




 HEAD WILL BE SAVED ON UNIT 1017 AT END OF TIME STEP    1, STRESS PERIOD   18


  VOLUME BUDGET FOR ENTIRE MODEL AT END OF TIME STEP    1, STRESS PERIOD  18
  ---------------------------------------------------------------------------------------------------

     CUMULATIVE VOLUME      L**3       RATES FOR THIS TIME STEP      L**3/T          PACKAGE NAME    
     ------------------                 ------------------------                     ----------------

           IN:                                      IN:
           ---                                      ---
              STO-SS =           0.0000                STO-SS =           0.0000     STORAGE                          
                 WEL =           0.0000                   WEL =           0.0000     WEL-1                            
                 GHB =           0.0000                   GHB =           0.0000     GHB-1                            
                 RCH =           0.3075                   RCH =       1.8615E-02     RCH-1                            

            TOTAL IN =           0.3075              TOTAL IN =       1.8615E-02

          OUT:                                     OUT:
          ----                                     ----
              STO-SS =       6.4741E-02                STO-SS =       8.9601E-04     STORAGE                          
                 WEL =           0.0000                   WEL =           0.0000     WEL-1                            
                 GHB =           0.2428                   GHB =       1.7719E-02     GHB-1                            
                 RCH =           0.0000                   RCH =           0.0000     RCH-1                            

           TOTAL OUT =           0.3075             TOTAL OUT =       1.8615E-02

            IN - OUT =      -2.7195E-10              IN - OUT =       1.2431E-11

 PERCENT DISCREPANCY =          -0.00     PERCENT DISCREPANCY =           0.00




         TIME SUMMARY AT END OF TIME STEP    1 IN STRESS PERIOD   18
                    SECONDS     MINUTES      HOURS       DAYS        YEARS
                    -----------------------------------------------------------
   TIME STEP LENGTH  86400.      1440.0      24.000      1.0000     2.73785E-03
 STRESS PERIOD TIME  86400.      1440.0      24.000      1.0000     2.73785E-03
         TOTAL TIME 1.55520E+06  25920.      432.00      18.000     4.92813E-02


end timestep


start timestep kper="19" kstp="1" mode="normal"


 OUTPUT CONTROL FOR STRESS PERIOD 19 IS REPEATED USING SETTINGS FROM A PREVIOUS STRESS PERIOD.


 STRESS PERIOD 19 IS TRANSIENT

 UBDSV1 SAVING           STO-SS ON UNIT   1018 AT TIME STEP      1, STRESS PERIOD     19
 UBDSV1 SAVING     FLOW-JA-FACE ON UNIT   1018 AT TIME STEP      1, STRESS PERIOD     19
 UBDSV06 SAVING         DATA-SAT IN MODEL MODEL            PACKAGE NPF             CONNECTED TO MODEL MODEL            PACKAGE NPF              ON UNIT   1018 AT TIME STEP      1, STRESS PERIOD     19
 UBDSV06 SAVING              GHB IN MODEL MODEL            PACKAGE MODEL           CONNECTED TO MODEL MODEL            PACKAGE GHB-1            ON UNIT   1018 AT TIME STEP      1, STRESS PERIOD     19

 GHB PACKAGE (GHB-1) FLOW RATES   PERIOD     19   STEP        1
 -----------------------------------------------
   NUMBER   CELLID                    RATE      
 -----------------------------------------------
     1      (5,1,1)              -1.80255935E-02
 -----------------------------------------------




 HEAD WILL BE SAVED ON UNIT 1017 AT END OF TIME STEP    1, STRESS PERIOD   19


  VOLUME BUDGET FOR ENTIRE MODEL AT END OF TIME STEP    1, STRESS PERIOD  19
  ---------------------------------------------------------------------------------------------------

     CUMULATIVE VOLUME      L**3       RATES FOR THIS TIME STEP      L**3/T          PACKAGE NAME    
     ------------------                 ------------------------                     ----------------

           IN:                                      IN:
           ---                                      ---
              STO-SS =           0.0000                STO-SS =           0.0000     STORAGE                          
                 WEL =           0.0000                   WEL =           0.0000     WEL-1                            
                 GHB =           0.0000                   GHB =           0.0000     GHB-1                            
                 RCH =           0.3266                   RCH =       1.9090E-02     RCH-1                            

            TOTAL IN =           0.3266              TOTAL IN =       1.9090E-02

          OUT:                                     OUT:
          ----                                     ----
              STO-SS =       6.5805E-02                STO-SS =       1.0644E-03     STORAGE                          
                 WEL =           0.0000                   WEL =           0.0000     WEL-1                            
                 GHB =           0.2608                   GHB =       1.8026E-02     GHB-1                            
                 RCH =           0.0000                   RCH =           0.0000     RCH-1                            

           TOTAL OUT =           0.3266             TOTAL OUT =       1.9090E-02

            IN - OUT =      -2.5823E-10              IN - OUT =       1.3716E-11

 PERCENT DISCREPANCY =          -0.00     PERCENT DISCREPANCY =           0.00




         TIME SUMMARY AT END OF TIME STEP    1 IN STRESS PERIOD   19
                    SECONDS     MINUTES      HOURS       DAYS        YEARS
                    -----------------------------------------------------------
   TIME STEP LENGTH  86400.      1440.0      24.000      1.0000     2.73785E-03
 STRESS PERIOD TIME  86400.      1440.0      24.000      1.0000     2.73785E-03
         TOTAL TIME 1.64160E+06  27360.      456.00      19.000     5.20192E-02


end timestep


start timestep kper="20" kstp="1" mode="normal"


 OUTPUT CONTROL FOR STRESS PERIOD 20 IS REPEATED USING SETTINGS FROM A PREVIOUS STRESS PERIOD.


 STRESS PERIOD 20 IS TRANSIENT

 UBDSV1 SAVING           STO-SS ON UNIT   1018 AT TIME STEP      1, STRESS PERIOD     20
 UBDSV1 SAVING     FLOW-JA-FACE ON UNIT   1018 AT TIME STEP      1, STRESS PERIOD     20
 UBDSV06 SAVING         DATA-SAT IN MODEL MODEL            PACKAGE NPF             CONNECTED TO MODEL MODEL            PACKAGE NPF              ON UNIT   1018 AT TIME STEP      1, STRESS PERIOD     20
 UBDSV06 SAVING              GHB IN MODEL MODEL            PACKAGE MODEL           CONNECTED TO MODEL MODEL            PACKAGE GHB-1            ON UNIT   1018 AT TIME STEP      1, STRESS PERIOD     20

 GHB PACKAGE (GHB-1) FLOW RATES   PERIOD     20   STEP        1
 -----------------------------------------------
   NUMBER   CELLID                    RATE      
 -----------------------------------------------
     1      (5,1,1)              -1.83885177E-02
 -----------------------------------------------




 HEAD WILL BE SAVED ON UNIT 1017 AT END OF TIME STEP    1, STRESS PERIOD   20


  VOLUME BUDGET FOR ENTIRE MODEL AT END OF TIME STEP    1, STRESS PERIOD  20
  ---------------------------------------------------------------------------------------------------

     CUMULATIVE VOLUME      L**3       RATES FOR THIS TIME STEP      L**3/T          PACKAGE NAME    
     ------------------                 ------------------------                     ----------------

           IN:                                      IN:
           ---                                      ---
              STO-SS =           0.0000                STO-SS =           0.0000     STORAGE                          
                 WEL =           0.0000                   WEL =           0.0000     WEL-1                            
                 GHB =           0.0000                   GHB =           0.0000     GHB-1                            
                 RCH =           0.3463                   RCH =       1.9665E-02     RCH-1                            

            TOTAL IN =           0.3463              TOTAL IN =       1.9665E-02

          OUT:                                     OUT:
          ----                                     ----
              STO-SS =       6.7082E-02                STO-SS =       1.2766E-03     STORAGE                          
                 WEL =           0.0000                   WEL =           0.0000     WEL-1                            
                 GHB =           0.2792                   GHB =       1.8389E-02     GHB-1                            
                 RCH =           0.0000                   RCH =           0.0000     RCH-1                            

           TOTAL OUT =           0.3463             TOTAL OUT =       1.9665E-02

            IN - OUT =      -2.4110E-10              IN - OUT =       1.7137E-11

 PERCENT DISCREPANCY =          -0.00     PERCENT DISCREPANCY =           0.00




         TIME SUMMARY AT END OF TIME STEP    1 IN STRESS PERIOD   20
                    SECONDS     MINUTES      HOURS       DAYS        YEARS
                    -----------------------------------------------------------
   TIME STEP LENGTH  86400.      1440.0      24.000      1.0000     2.73785E-03
 STRESS PERIOD TIME  86400.      1440.0      24.000      1.0000     2.73785E-03
         TOTAL TIME 1.72800E+06  28800.      480.00      20.000     5.47570E-02


end timestep


start timestep kper="21" kstp="1" mode="normal"


 OUTPUT CONTROL FOR STRESS PERIOD 21 IS REPEATED USING SETTINGS FROM A PREVIOUS STRESS PERIOD.


 STRESS PERIOD 21 IS TRANSIENT

 UBDSV1 SAVING           STO-SS ON UNIT   1018 AT TIME STEP      1, STRESS PERIOD     21
 UBDSV1 SAVING     FLOW-JA-FACE ON UNIT   1018 AT TIME STEP      1, STRESS PERIOD     21
 UBDSV06 SAVING         DATA-SAT IN MODEL MODEL            PACKAGE NPF             CONNECTED TO MODEL MODEL            PACKAGE NPF              ON UNIT   1018 AT TIME STEP      1, STRESS PERIOD     21
 UBDSV06 SAVING              GHB IN MODEL MODEL            PACKAGE MODEL           CONNECTED TO MODEL MODEL            PACKAGE GHB-1            ON UNIT   1018 AT TIME STEP      1, STRESS PERIOD     21

 GHB PACKAGE (GHB-1) FLOW RATES   PERIOD     21   STEP        1
 -----------------------------------------------
   NUMBER   CELLID                    RATE      
 -----------------------------------------------
     1      (5,1,1)              -1.88181391E-02
 -----------------------------------------------




 HEAD WILL BE SAVED ON UNIT 1017 AT END OF TIME STEP    1, STRESS PERIOD   21


  VOLUME BUDGET FOR ENTIRE MODEL AT END OF TIME STEP    1, STRESS PERIOD  21
  ---------------------------------------------------------------------------------------------------

     CUMULATIVE VOLUME      L**3       RATES FOR THIS TIME STEP      L**3/T          PACKAGE NAME    
     ------------------                 ------------------------                     ----------------

           IN:                                      IN:
           ---                                      ---
[...]
  ---------------------------------------------------------------------------------------------------

     CUMULATIVE VOLUME      L**3       RATES FOR THIS TIME STEP      L**3/T          PACKAGE NAME    
     ------------------                 ------------------------                     ----------------

           IN:                                      IN:
           ---                                      ---
              STO-SS =       1.9203E-02                STO-SS =       9.0487E-04     STORAGE                          
                 WEL =           0.0000                   WEL =           0.0000     WEL-1                            
                 GHB =           0.0000                   GHB =           0.0000     GHB-1                            
                 RCH =           6.3706                   RCH =           0.2040     RCH-1                            

            TOTAL IN =           6.3898              TOTAL IN =           0.2049

          OUT:                                     OUT:
          ----                                     ----
              STO-SS =           0.5281                STO-SS =           0.0000     STORAGE                          
                 WEL =           0.0000                   WEL =           0.0000     WEL-1                            
                 GHB =           5.8617                   GHB =           0.2049     GHB-1                            
                 RCH =           0.0000                   RCH =           0.0000     RCH-1                            

           TOTAL OUT =           6.3898             TOTAL OUT =           0.2049

            IN - OUT =      -6.5285E-10              IN - OUT =      -1.2806E-11

 PERCENT DISCREPANCY =          -0.00     PERCENT DISCREPANCY =          -0.00




         TIME SUMMARY AT END OF TIME STEP    1 IN STRESS PERIOD   65
                    SECONDS     MINUTES      HOURS       DAYS        YEARS
                    -----------------------------------------------------------
   TIME STEP LENGTH  86400.      1440.0      24.000      1.0000     2.73785E-03
 STRESS PERIOD TIME  86400.      1440.0      24.000      1.0000     2.73785E-03
         TOTAL TIME 5.61600E+06  93600.      1560.0      65.000     0.17796    


end timestep


start timestep kper="66" kstp="1" mode="normal"


 OUTPUT CONTROL FOR STRESS PERIOD 66 IS REPEATED USING SETTINGS FROM A PREVIOUS STRESS PERIOD.


 STRESS PERIOD 66 IS TRANSIENT

 UBDSV1 SAVING           STO-SS ON UNIT   1018 AT TIME STEP      1, STRESS PERIOD     66
 UBDSV1 SAVING     FLOW-JA-FACE ON UNIT   1018 AT TIME STEP      1, STRESS PERIOD     66
 UBDSV06 SAVING         DATA-SAT IN MODEL MODEL            PACKAGE NPF             CONNECTED TO MODEL MODEL            PACKAGE NPF              ON UNIT   1018 AT TIME STEP      1, STRESS PERIOD     66
 UBDSV06 SAVING              GHB IN MODEL MODEL            PACKAGE MODEL           CONNECTED TO MODEL MODEL            PACKAGE GHB-1            ON UNIT   1018 AT TIME STEP      1, STRESS PERIOD     66

 GHB PACKAGE (GHB-1) FLOW RATES   PERIOD     66   STEP        1
 -----------------------------------------------
   NUMBER   CELLID                    RATE      
 -----------------------------------------------
     1      (5,1,1)              -0.20168498    
 -----------------------------------------------




 HEAD WILL BE SAVED ON UNIT 1017 AT END OF TIME STEP    1, STRESS PERIOD   66


  VOLUME BUDGET FOR ENTIRE MODEL AT END OF TIME STEP    1, STRESS PERIOD  66
  ---------------------------------------------------------------------------------------------------

     CUMULATIVE VOLUME      L**3       RATES FOR THIS TIME STEP      L**3/T          PACKAGE NAME    
     ------------------                 ------------------------                     ----------------

           IN:                                      IN:
           ---                                      ---
              STO-SS =       2.0503E-02                STO-SS =       1.3001E-03     STORAGE                          
                 WEL =           0.0000                   WEL =           0.0000     WEL-1                            
                 GHB =           0.0000                   GHB =           0.0000     GHB-1                            
                 RCH =           6.5710                   RCH =           0.2004     RCH-1                            

            TOTAL IN =           6.5915              TOTAL IN =           0.2017

          OUT:                                     OUT:
          ----                                     ----
              STO-SS =           0.5281                STO-SS =           0.0000     STORAGE                          
                 WEL =           0.0000                   WEL =           0.0000     WEL-1                            
                 GHB =           6.0634                   GHB =           0.2017     GHB-1                            
                 RCH =           0.0000                   RCH =           0.0000     RCH-1                            

           TOTAL OUT =           6.5915             TOTAL OUT =           0.2017

            IN - OUT =      -6.5812E-10              IN - OUT =      -5.2708E-12

 PERCENT DISCREPANCY =          -0.00     PERCENT DISCREPANCY =          -0.00




         TIME SUMMARY AT END OF TIME STEP    1 IN STRESS PERIOD   66
                    SECONDS     MINUTES      HOURS       DAYS        YEARS
                    -----------------------------------------------------------
   TIME STEP LENGTH  86400.      1440.0      24.000      1.0000     2.73785E-03
 STRESS PERIOD TIME  86400.      1440.0      24.000      1.0000     2.73785E-03
         TOTAL TIME 5.70240E+06  95040.      1584.0      66.000     0.18070    


end timestep


start timestep kper="67" kstp="1" mode="normal"


 OUTPUT CONTROL FOR STRESS PERIOD 67 IS REPEATED USING SETTINGS FROM A PREVIOUS STRESS PERIOD.


 STRESS PERIOD 67 IS TRANSIENT

 UBDSV1 SAVING           STO-SS ON UNIT   1018 AT TIME STEP      1, STRESS PERIOD     67
 UBDSV1 SAVING     FLOW-JA-FACE ON UNIT   1018 AT TIME STEP      1, STRESS PERIOD     67
 UBDSV06 SAVING         DATA-SAT IN MODEL MODEL            PACKAGE NPF             CONNECTED TO MODEL MODEL            PACKAGE NPF              ON UNIT   1018 AT TIME STEP      1, STRESS PERIOD     67
 UBDSV06 SAVING              GHB IN MODEL MODEL            PACKAGE MODEL           CONNECTED TO MODEL MODEL            PACKAGE GHB-1            ON UNIT   1018 AT TIME STEP      1, STRESS PERIOD     67

 GHB PACKAGE (GHB-1) FLOW RATES   PERIOD     67   STEP        1
 -----------------------------------------------
   NUMBER   CELLID                    RATE      
 -----------------------------------------------
     1      (5,1,1)              -0.19941570    
 -----------------------------------------------




 HEAD WILL BE SAVED ON UNIT 1017 AT END OF TIME STEP    1, STRESS PERIOD   67


  VOLUME BUDGET FOR ENTIRE MODEL AT END OF TIME STEP    1, STRESS PERIOD  67
  ---------------------------------------------------------------------------------------------------

     CUMULATIVE VOLUME      L**3       RATES FOR THIS TIME STEP      L**3/T          PACKAGE NAME    
     ------------------                 ------------------------                     ----------------

           IN:                                      IN:
           ---                                      ---
              STO-SS =       2.1383E-02                STO-SS =       8.8057E-04     STORAGE                          
                 WEL =           0.0000                   WEL =           0.0000     WEL-1                            
                 GHB =           0.0000                   GHB =           0.0000     GHB-1                            
                 RCH =           6.7695                   RCH =           0.1985     RCH-1                            

            TOTAL IN =           6.7909              TOTAL IN =           0.1994

          OUT:                                     OUT:
          ----                                     ----
              STO-SS =           0.5281                STO-SS =           0.0000     STORAGE                          
                 WEL =           0.0000                   WEL =           0.0000     WEL-1                            
                 GHB =           6.2628                   GHB =           0.1994     GHB-1                            
                 RCH =           0.0000                   RCH =           0.0000     RCH-1                            

           TOTAL OUT =           6.7909             TOTAL OUT =           0.1994

            IN - OUT =      -6.6360E-10              IN - OUT =      -5.4834E-12

 PERCENT DISCREPANCY =          -0.00     PERCENT DISCREPANCY =          -0.00




         TIME SUMMARY AT END OF TIME STEP    1 IN STRESS PERIOD   67
                    SECONDS     MINUTES      HOURS       DAYS        YEARS
                    -----------------------------------------------------------
   TIME STEP LENGTH  86400.      1440.0      24.000      1.0000     2.73785E-03
 STRESS PERIOD TIME  86400.      1440.0      24.000      1.0000     2.73785E-03
         TOTAL TIME 5.78880E+06  96480.      1608.0      67.000     0.18344    


end timestep


start timestep kper="68" kstp="1" mode="normal"


 OUTPUT CONTROL FOR STRESS PERIOD 68 IS REPEATED USING SETTINGS FROM A PREVIOUS STRESS PERIOD.


 STRESS PERIOD 68 IS TRANSIENT

 UBDSV1 SAVING           STO-SS ON UNIT   1018 AT TIME STEP      1, STRESS PERIOD     68
 UBDSV1 SAVING     FLOW-JA-FACE ON UNIT   1018 AT TIME STEP      1, STRESS PERIOD     68
 UBDSV06 SAVING         DATA-SAT IN MODEL MODEL            PACKAGE NPF             CONNECTED TO MODEL MODEL            PACKAGE NPF              ON UNIT   1018 AT TIME STEP      1, STRESS PERIOD     68
 UBDSV06 SAVING              GHB IN MODEL MODEL            PACKAGE MODEL           CONNECTED TO MODEL MODEL            PACKAGE GHB-1            ON UNIT   1018 AT TIME STEP      1, STRESS PERIOD     68

 GHB PACKAGE (GHB-1) FLOW RATES   PERIOD     68   STEP        1
 -----------------------------------------------
   NUMBER   CELLID                    RATE      
 -----------------------------------------------
     1      (5,1,1)              -0.19529054    
 -----------------------------------------------




 HEAD WILL BE SAVED ON UNIT 1017 AT END OF TIME STEP    1, STRESS PERIOD   68


  VOLUME BUDGET FOR ENTIRE MODEL AT END OF TIME STEP    1, STRESS PERIOD  68
  ---------------------------------------------------------------------------------------------------

     CUMULATIVE VOLUME      L**3       RATES FOR THIS TIME STEP      L**3/T          PACKAGE NAME    
     ------------------                 ------------------------                     ----------------

           IN:                                      IN:
           ---                                      ---
              STO-SS =       2.3097E-02                STO-SS =       1.7132E-03     STORAGE                          
                 WEL =           0.0000                   WEL =           0.0000     WEL-1                            
                 GHB =           0.0000                   GHB =           0.0000     GHB-1                            
                 RCH =           6.9631                   RCH =           0.1936     RCH-1                            

            TOTAL IN =           6.9862              TOTAL IN =           0.1953

          OUT:                                     OUT:
          ----                                     ----
              STO-SS =           0.5281                STO-SS =           0.0000     STORAGE                          
                 WEL =           0.0000                   WEL =           0.0000     WEL-1                            
                 GHB =           6.4581                   GHB =           0.1953     GHB-1                            
                 RCH =           0.0000                   RCH =           0.0000     RCH-1                            

           TOTAL OUT =           6.9862             TOTAL OUT =           0.1953

            IN - OUT =      -6.6585E-10              IN - OUT =      -2.2421E-12

 PERCENT DISCREPANCY =          -0.00     PERCENT DISCREPANCY =          -0.00




         TIME SUMMARY AT END OF TIME STEP    1 IN STRESS PERIOD   68
                    SECONDS     MINUTES      HOURS       DAYS        YEARS
                    -----------------------------------------------------------
   TIME STEP LENGTH  86400.      1440.0      24.000      1.0000     2.73785E-03
 STRESS PERIOD TIME  86400.      1440.0      24.000      1.0000     2.73785E-03
         TOTAL TIME 5.87520E+06  97920.      1632.0      68.000     0.18617    


end timestep


start timestep kper="69" kstp="1" mode="normal"


 OUTPUT CONTROL FOR STRESS PERIOD 69 IS REPEATED USING SETTINGS FROM A PREVIOUS STRESS PERIOD.


 STRESS PERIOD 69 IS TRANSIENT

 UBDSV1 SAVING           STO-SS ON UNIT   1018 AT TIME STEP      1, STRESS PERIOD     69
 UBDSV1 SAVING     FLOW-JA-FACE ON UNIT   1018 AT TIME STEP      1, STRESS PERIOD     69
 UBDSV06 SAVING         DATA-SAT IN MODEL MODEL            PACKAGE NPF             CONNECTED TO MODEL MODEL            PACKAGE NPF              ON UNIT   1018 AT TIME STEP      1, STRESS PERIOD     69
 UBDSV06 SAVING              GHB IN MODEL MODEL            PACKAGE MODEL           CONNECTED TO MODEL MODEL            PACKAGE GHB-1            ON UNIT   1018 AT TIME STEP      1, STRESS PERIOD     69

 GHB PACKAGE (GHB-1) FLOW RATES   PERIOD     69   STEP        1
 -----------------------------------------------
   NUMBER   CELLID                    RATE      
 -----------------------------------------------
     1      (5,1,1)              -0.19065797    
 -----------------------------------------------




 HEAD WILL BE SAVED ON UNIT 1017 AT END OF TIME STEP    1, STRESS PERIOD   69


  VOLUME BUDGET FOR ENTIRE MODEL AT END OF TIME STEP    1, STRESS PERIOD  69
  ---------------------------------------------------------------------------------------------------

     CUMULATIVE VOLUME      L**3       RATES FOR THIS TIME STEP      L**3/T          PACKAGE NAME    
     ------------------                 ------------------------                     ----------------

           IN:                                      IN:
           ---                                      ---
              STO-SS =       2.5007E-02                STO-SS =       1.9103E-03     STORAGE                          
                 WEL =           0.0000                   WEL =           0.0000     WEL-1                            
                 GHB =           0.0000                   GHB =           0.0000     GHB-1                            
                 RCH =           7.1519                   RCH =           0.1887     RCH-1                            

            TOTAL IN =           7.1769              TOTAL IN =           0.1907

          OUT:                                     OUT:
          ----                                     ----
              STO-SS =           0.5281                STO-SS =           0.0000     STORAGE                          
                 WEL =           0.0000                   WEL =           0.0000     WEL-1                            
                 GHB =           6.6487                   GHB =           0.1907     GHB-1                            
                 RCH =           0.0000                   RCH =           0.0000     RCH-1                            

           TOTAL OUT =           7.1769             TOTAL OUT =           0.1907

            IN - OUT =      -7.0569E-10              IN - OUT =      -3.9845E-11

 PERCENT DISCREPANCY =          -0.00     PERCENT DISCREPANCY =          -0.00




         TIME SUMMARY AT END OF TIME STEP    1 IN STRESS PERIOD   69
                    SECONDS     MINUTES      HOURS       DAYS        YEARS
                    -----------------------------------------------------------
   TIME STEP LENGTH  86400.      1440.0      24.000      1.0000     2.73785E-03
 STRESS PERIOD TIME  86400.      1440.0      24.000      1.0000     2.73785E-03
         TOTAL TIME 5.96160E+06  99360.      1656.0      69.000     0.18891    


end timestep


start timestep kper="70" kstp="1" mode="normal"


 OUTPUT CONTROL FOR STRESS PERIOD 70 IS REPEATED USING SETTINGS FROM A PREVIOUS STRESS PERIOD.


 STRESS PERIOD 70 IS TRANSIENT

 UBDSV1 SAVING           STO-SS ON UNIT   1018 AT TIME STEP      1, STRESS PERIOD     70
 UBDSV1 SAVING     FLOW-JA-FACE ON UNIT   1018 AT TIME STEP      1, STRESS PERIOD     70
 UBDSV06 SAVING         DATA-SAT IN MODEL MODEL            PACKAGE NPF             CONNECTED TO MODEL MODEL            PACKAGE NPF              ON UNIT   1018 AT TIME STEP      1, STRESS PERIOD     70
 UBDSV06 SAVING              GHB IN MODEL MODEL            PACKAGE MODEL           CONNECTED TO MODEL MODEL            PACKAGE GHB-1            ON UNIT   1018 AT TIME STEP      1, STRESS PERIOD     70

 GHB PACKAGE (GHB-1) FLOW RATES   PERIOD     70   STEP        1
 -----------------------------------------------
   NUMBER   CELLID                    RATE      
 -----------------------------------------------
     1      (5,1,1)              -0.17857937    
 -----------------------------------------------




 HEAD WILL BE SAVED ON UNIT 1017 AT END OF TIME STEP    1, STRESS PERIOD   70


  VOLUME BUDGET FOR ENTIRE MODEL AT END OF TIME STEP    1, STRESS PERIOD  70
  ---------------------------------------------------------------------------------------------------

     CUMULATIVE VOLUME      L**3       RATES FOR THIS TIME STEP      L**3/T          PACKAGE NAME    
     ------------------                 ------------------------                     ----------------

           IN:                                      IN:
           ---                                      ---
              STO-SS =       3.0270E-02                STO-SS =       5.2636E-03     STORAGE                          
                 WEL =           0.0000                   WEL =           0.0000     WEL-1                            
                 GHB =           0.0000                   GHB =           0.0000     GHB-1                            
                 RCH =           7.3252                   RCH =           0.1733     RCH-1                            

            TOTAL IN =           7.3554              TOTAL IN =           0.1786

          OUT:                                     OUT:
          ----                                     ----
              STO-SS =           0.5281                STO-SS =           0.0000     STORAGE                          
                 WEL =           0.0000                   WEL =           0.0000     WEL-1                            
                 GHB =           6.8273                   GHB =           0.1786     GHB-1                            
                 RCH =           0.0000                   RCH =           0.0000     RCH-1                            

           TOTAL OUT =           7.3554             TOTAL OUT =           0.1786

            IN - OUT =      -7.0013E-10              IN - OUT =       5.5662E-12

 PERCENT DISCREPANCY =          -0.00     PERCENT DISCREPANCY =           0.00




         TIME SUMMARY AT END OF TIME STEP    1 IN STRESS PERIOD   70
                    SECONDS     MINUTES      HOURS       DAYS        YEARS
                    -----------------------------------------------------------
   TIME STEP LENGTH  86400.      1440.0      24.000      1.0000     2.73785E-03
 STRESS PERIOD TIME  86400.      1440.0      24.000      1.0000     2.73785E-03
         TOTAL TIME 6.04800E+06 1.00800E+05  1680.0      70.000     0.19165    


end timestep

